version 2
run C2CEpidemic-0-20200623-01:17:33-6027
attr configname C2CEpidemic
attr datetime 20200623-01:17:33
attr experiment C2CEpidemic
attr inifile omnetpp.ini
attr iterationvars ""
attr iterationvarsf ""
attr measurement ""
attr network ned.Network
attr processid 6027
attr repetition 0
attr replication #0
attr resultdir results
attr runnumber 0
attr seedset 0
param **.**.applType "\"C2C_Epidemic\""
param .V[*].appl.speed 22mps
param *.V[*].appl.plist_Interval 0.5s
param *.V[*].appl.beacon_Interval 1s
param *.V[*].appl.message_Lost 0
param *.playgroundSizeX 25000m
param *.playgroundSizeY 25000m
param *.playgroundSizeZ 50m
param *.annotations.draw true
param *.obstacles.obstacles "xmldoc(\"sumo/config.xml\", \"//AnalogueModel[@type='SimpleObstacleShadowing']/obstacles\")"
param Network.manager.updateInterval 1s
param Network.manager.host "\"localhost\""
param Network.manager.port 9999
param Network.manager.moduleType "\"ned.VNode\""
param Network.manager.moduleName "\"V\""
param Network.manager.moduleDisplayString "\"\""
param Network.manager.autoShutdown true
param Network.manager.margin 25
param Network.manager.launchConfig "xmldoc(\"sumo/erlangen.launchd.xml\")"
param *.connectionManager.sendDirect true
param *.connectionManager.maxInterfDist 2600m
param *.connectionManager.drawMaxIntfDist false
param *.**.nic.mac1609_4.useServiceChannel false
param *.**.nic.mac1609_4.txPower 20mW
param *.**.nic.mac1609_4.bitrate 6Mbps
param *.**.nic.phy80211p.minPowerLevel -110dBm
param *.**.nic.phy80211p.useNoiseFloor true
param *.**.nic.phy80211p.noiseFloor -98dBm
param *.**.nic.phy80211p.decider "xmldoc(\"sumo/config.xml\")"
param *.**.nic.phy80211p.analogueModels "xmldoc(\"sumo/config.xml\")"
param *.**.nic.phy80211p.usePropagationDelay true
param *.**.nic.phy80211p.antenna "xmldoc(\"sumo/antenna.xml\", \"/root/Antenna[@id='monopole']\")"
param Network.numCA 1
param Network.numRSU 1
param Network.numV 0
param **.applType "\"VAppl\""
param **.appl.headerLength "18400 bit"
param Network.CA[*].appl.InitialWait 0
param Network.CA[*].appl.CRLsize 1000
param Network.CA[*].appl.EnableShuffle true
param Network.CA[*].appl.NoSegments 20
param Network.CA[*].appl.Pseudonym_lifeTime 120s
param Network.RSU[*].appl.beacon_Interval 1s
param Network.RSU[*].appl.CRL_Interval 20s
param Network.RSU[*].appl.I2V_tho 0s
param Network.RSU[*].appl.I2V_EnableMultiChannel false
param Network.V[*].appl.speed 22mps
param Network.V[*].appl.beacon_Interval 4s
param Network.V[*].appl.V2V_tho 0s
param Network.V[*].appl.V2V_Wait_Beacon 0.03s
param Network.V[*].appl.V2V_EnableMultiChannel false
param Network.V[*].appl.V2V_Wait_CRL 0.1s
param Network.V[*].appl.MagicCarsRatio 0
param Network.V[*].appl.MagicReqTime intuniform(0,60)
param Network.V[*].appl.CRLrecons false
param Network.V[*].appl.CompromisedEnable false
param Network.V[*].appl.CompromisedMsgSendTime 0s
param Network.CA[0].mobility.x 1100
param Network.CA[0].mobility.y 50
param Network.CA[0].mobility.z 0
param Network.RSU[0].mobility.x 2000
param Network.RSU[1].mobility.x 860
param Network.RSU[2].mobility.x 1360
param Network.RSU[3].mobility.x 1860
param Network.RSU[*].mobility.y 2000
param Network.RSU[*].mobility.z 3
param *.V[*].veinsmobility.x 0
param *.V[*].veinsmobility.y 0
param *.V[*].veinsmobility.z 0
param *.V[*].veinsmobility.setHostSpeed false

vector 0 Network.V[0].veinsmobility posx ETV
vector 1 Network.V[0].veinsmobility posy ETV
vector 2 Network.V[0].veinsmobility speed ETV
vector 3 Network.V[0].veinsmobility acceleration ETV
vector 4 Network.V[0].veinsmobility co2emission ETV
vector 5 Network.V[1].veinsmobility posx ETV
vector 6 Network.V[1].veinsmobility posy ETV
vector 7 Network.V[1].veinsmobility speed ETV
vector 8 Network.V[1].veinsmobility acceleration ETV
vector 9 Network.V[1].veinsmobility co2emission ETV
vector 10 Network.V[2].veinsmobility posx ETV
vector 11 Network.V[2].veinsmobility posy ETV
vector 12 Network.V[2].veinsmobility speed ETV
vector 13 Network.V[2].veinsmobility acceleration ETV
vector 14 Network.V[2].veinsmobility co2emission ETV
vector 15 Network.V[3].veinsmobility posx ETV
vector 16 Network.V[3].veinsmobility posy ETV
vector 17 Network.V[3].veinsmobility speed ETV
vector 18 Network.V[3].veinsmobility acceleration ETV
vector 19 Network.V[3].veinsmobility co2emission ETV
vector 20 Network.V[4].veinsmobility posx ETV
vector 21 Network.V[4].veinsmobility posy ETV
vector 22 Network.V[4].veinsmobility speed ETV
vector 23 Network.V[4].veinsmobility acceleration ETV
vector 24 Network.V[4].veinsmobility co2emission ETV
vector 25 Network.V[5].veinsmobility posx ETV
vector 26 Network.V[5].veinsmobility posy ETV
vector 27 Network.V[5].veinsmobility speed ETV
vector 28 Network.V[5].veinsmobility acceleration ETV
vector 29 Network.V[5].veinsmobility co2emission ETV
vector 30 Network.V[6].veinsmobility posx ETV
vector 31 Network.V[6].veinsmobility posy ETV
vector 32 Network.V[6].veinsmobility speed ETV
vector 33 Network.V[6].veinsmobility acceleration ETV
vector 34 Network.V[6].veinsmobility co2emission ETV
vector 35 Network.V[7].veinsmobility posx ETV
vector 36 Network.V[7].veinsmobility posy ETV
vector 37 Network.V[7].veinsmobility speed ETV
vector 38 Network.V[7].veinsmobility acceleration ETV
vector 39 Network.V[7].veinsmobility co2emission ETV
vector 40 Network.V[8].veinsmobility posx ETV
vector 41 Network.V[8].veinsmobility posy ETV
vector 42 Network.V[8].veinsmobility speed ETV
vector 43 Network.V[8].veinsmobility acceleration ETV
vector 44 Network.V[8].veinsmobility co2emission ETV
vector 45 Network.V[9].veinsmobility posx ETV
vector 46 Network.V[9].veinsmobility posy ETV
vector 47 Network.V[6].appl "No of CRL Pieces" ETV
vector 48 Network.V[9].veinsmobility speed ETV
vector 49 Network.V[9].veinsmobility acceleration ETV
vector 50 Network.V[9].veinsmobility co2emission ETV
vector 51 Network.V[10].veinsmobility posx ETV
vector 52 Network.V[10].veinsmobility posy ETV
vector 53 Network.V[10].veinsmobility speed ETV
vector 54 Network.V[10].veinsmobility acceleration ETV
vector 55 Network.V[10].veinsmobility co2emission ETV
vector 56 Network.V[11].veinsmobility posx ETV
vector 57 Network.V[11].veinsmobility posy ETV
vector 58 Network.V[11].veinsmobility speed ETV
vector 59 Network.V[11].veinsmobility acceleration ETV
vector 60 Network.V[11].veinsmobility co2emission ETV
vector 61 Network.V[12].veinsmobility posx ETV
vector 62 Network.V[12].veinsmobility posy ETV
vector 63 Network.V[12].veinsmobility speed ETV
vector 64 Network.V[12].veinsmobility acceleration ETV
vector 65 Network.V[12].veinsmobility co2emission ETV
vector 66 Network.V[13].veinsmobility posx ETV
vector 67 Network.V[13].veinsmobility posy ETV
vector 68 Network.V[13].veinsmobility speed ETV
vector 69 Network.V[13].veinsmobility acceleration ETV
vector 70 Network.V[13].veinsmobility co2emission ETV
vector 71 Network.V[14].veinsmobility posx ETV
vector 72 Network.V[14].veinsmobility posy ETV
vector 73 Network.V[14].veinsmobility speed ETV
vector 74 Network.V[14].veinsmobility acceleration ETV
vector 75 Network.V[14].veinsmobility co2emission ETV
vector 76 Network.V[15].veinsmobility posx ETV
vector 77 Network.V[15].veinsmobility posy ETV
vector 78 Network.V[15].veinsmobility speed ETV
vector 79 Network.V[15].veinsmobility acceleration ETV
vector 80 Network.V[15].veinsmobility co2emission ETV
vector 81 Network.V[12].appl "No of CRL Pieces" ETV
vector 82 Network.V[16].veinsmobility posx ETV
vector 83 Network.V[16].veinsmobility posy ETV
vector 84 Network.V[16].veinsmobility speed ETV
vector 85 Network.V[16].veinsmobility acceleration ETV
vector 86 Network.V[16].veinsmobility co2emission ETV
vector 87 Network.V[17].veinsmobility posx ETV
vector 88 Network.V[17].veinsmobility posy ETV
vector 89 Network.V[17].veinsmobility speed ETV
vector 90 Network.V[17].veinsmobility acceleration ETV
vector 91 Network.V[17].veinsmobility co2emission ETV
vector 92 Network.V[18].veinsmobility posx ETV
vector 93 Network.V[18].veinsmobility posy ETV
vector 94 Network.V[18].veinsmobility speed ETV
vector 95 Network.V[18].veinsmobility acceleration ETV
vector 96 Network.V[18].veinsmobility co2emission ETV
vector 97 Network.V[19].veinsmobility posx ETV
vector 98 Network.V[19].veinsmobility posy ETV
vector 99 Network.V[19].veinsmobility speed ETV
vector 100 Network.V[19].veinsmobility acceleration ETV
vector 101 Network.V[19].veinsmobility co2emission ETV
vector 102 Network.V[20].veinsmobility posx ETV
vector 103 Network.V[20].veinsmobility posy ETV
vector 104 Network.V[20].veinsmobility speed ETV
vector 105 Network.V[20].veinsmobility acceleration ETV
vector 106 Network.V[20].veinsmobility co2emission ETV
vector 107 Network.V[21].veinsmobility posx ETV
vector 108 Network.V[21].veinsmobility posy ETV
vector 109 Network.V[21].veinsmobility speed ETV
vector 110 Network.V[21].veinsmobility acceleration ETV
vector 111 Network.V[21].veinsmobility co2emission ETV
vector 112 Network.V[22].veinsmobility posx ETV
vector 113 Network.V[22].veinsmobility posy ETV
vector 114 Network.V[22].veinsmobility speed ETV
vector 115 Network.V[0].appl "No of CRL Pieces" ETV
vector 116 Network.V[1].appl "No of CRL Pieces" ETV
vector 117 Network.V[2].appl "No of CRL Pieces" ETV
vector 118 Network.V[3].appl "No of CRL Pieces" ETV
vector 119 Network.V[4].appl "No of CRL Pieces" ETV
vector 120 Network.V[5].appl "No of CRL Pieces" ETV
vector 121 Network.V[19].appl "No of CRL Pieces" ETV
vector 122 Network.V[22].veinsmobility acceleration ETV
vector 123 Network.V[22].veinsmobility co2emission ETV
vector 124 Network.V[23].veinsmobility posx ETV
vector 125 Network.V[23].veinsmobility posy ETV
vector 126 Network.V[23].veinsmobility speed ETV
vector 127 Network.V[23].veinsmobility acceleration ETV
vector 128 Network.V[23].veinsmobility co2emission ETV
vector 129 Network.V[24].veinsmobility posx ETV
vector 130 Network.V[24].veinsmobility posy ETV
vector 131 Network.V[24].veinsmobility speed ETV
vector 132 Network.V[24].veinsmobility acceleration ETV
vector 133 Network.V[24].veinsmobility co2emission ETV
vector 134 Network.V[25].veinsmobility posx ETV
vector 135 Network.V[25].veinsmobility posy ETV
vector 136 Network.V[25].veinsmobility speed ETV
vector 137 Network.V[25].veinsmobility acceleration ETV
vector 138 Network.V[25].veinsmobility co2emission ETV
vector 139 Network.V[26].veinsmobility posx ETV
vector 140 Network.V[26].veinsmobility posy ETV
vector 141 Network.V[26].veinsmobility speed ETV
vector 142 Network.V[26].veinsmobility acceleration ETV
vector 143 Network.V[26].veinsmobility co2emission ETV
vector 144 Network.V[27].veinsmobility posx ETV
vector 145 Network.V[27].veinsmobility posy ETV
vector 146 Network.V[27].veinsmobility speed ETV
vector 147 Network.V[27].veinsmobility acceleration ETV
vector 148 Network.V[27].veinsmobility co2emission ETV
vector 149 Network.V[28].veinsmobility posx ETV
vector 150 Network.V[28].veinsmobility posy ETV
vector 151 Network.V[28].veinsmobility speed ETV
vector 152 Network.V[28].veinsmobility acceleration ETV
vector 153 Network.V[28].veinsmobility co2emission ETV
vector 154 Network.V[29].veinsmobility posx ETV
vector 155 Network.V[29].veinsmobility posy ETV
vector 156 Network.V[7].appl "No of CRL Pieces" ETV
vector 157 Network.V[8].appl "No of CRL Pieces" ETV
vector 158 Network.V[9].appl "No of CRL Pieces" ETV
vector 159 Network.V[10].appl "No of CRL Pieces" ETV
vector 160 Network.V[11].appl "No of CRL Pieces" ETV
vector 161 Network.V[26].appl "No of CRL Pieces" ETV
vector 162 Network.V[29].veinsmobility speed ETV
vector 163 Network.V[29].veinsmobility acceleration ETV
vector 164 Network.V[29].veinsmobility co2emission ETV
vector 165 Network.V[30].veinsmobility posx ETV
vector 166 Network.V[30].veinsmobility posy ETV
vector 167 Network.V[30].veinsmobility speed ETV
vector 168 Network.V[30].veinsmobility acceleration ETV
vector 169 Network.V[30].veinsmobility co2emission ETV
vector 170 Network.V[31].veinsmobility posx ETV
vector 171 Network.V[31].veinsmobility posy ETV
vector 172 Network.V[31].veinsmobility speed ETV
vector 173 Network.V[31].veinsmobility acceleration ETV
vector 174 Network.V[31].veinsmobility co2emission ETV
vector 175 Network.V[32].veinsmobility posx ETV
vector 176 Network.V[32].veinsmobility posy ETV
vector 177 Network.V[32].veinsmobility speed ETV
vector 178 Network.V[32].veinsmobility acceleration ETV
vector 179 Network.V[32].veinsmobility co2emission ETV
vector 180 Network.V[33].veinsmobility posx ETV
vector 181 Network.V[33].veinsmobility posy ETV
vector 182 Network.V[33].veinsmobility speed ETV
vector 183 Network.V[33].veinsmobility acceleration ETV
vector 184 Network.V[33].veinsmobility co2emission ETV
vector 185 Network.V[34].veinsmobility posx ETV
vector 186 Network.V[34].veinsmobility posy ETV
vector 187 Network.V[34].veinsmobility speed ETV
vector 188 Network.V[34].veinsmobility acceleration ETV
vector 189 Network.V[34].veinsmobility co2emission ETV
vector 190 Network.V[35].veinsmobility posx ETV
vector 191 Network.V[35].veinsmobility posy ETV
vector 192 Network.V[35].veinsmobility speed ETV
vector 193 Network.V[35].veinsmobility acceleration ETV
vector 194 Network.V[35].veinsmobility co2emission ETV
vector 195 Network.V[13].appl "No of CRL Pieces" ETV
vector 196 Network.V[14].appl "No of CRL Pieces" ETV
vector 197 Network.V[15].appl "No of CRL Pieces" ETV
vector 198 Network.V[16].appl "No of CRL Pieces" ETV
vector 199 Network.V[32].appl "No of CRL Pieces" ETV
vector 200 Network.V[33].appl "No of CRL Pieces" ETV
vector 201 Network.V[36].veinsmobility posx ETV
vector 202 Network.V[36].veinsmobility posy ETV
vector 203 Network.V[36].veinsmobility speed ETV
vector 204 Network.V[36].veinsmobility acceleration ETV
vector 205 Network.V[36].veinsmobility co2emission ETV
vector 206 Network.V[37].veinsmobility posx ETV
vector 207 Network.V[37].veinsmobility posy ETV
vector 208 Network.V[37].veinsmobility speed ETV
vector 209 Network.V[37].veinsmobility acceleration ETV
vector 210 Network.V[37].veinsmobility co2emission ETV
vector 211 Network.V[38].veinsmobility posx ETV
vector 212 Network.V[38].veinsmobility posy ETV
vector 213 Network.V[38].veinsmobility speed ETV
vector 214 Network.V[38].veinsmobility acceleration ETV
vector 215 Network.V[38].veinsmobility co2emission ETV
vector 216 Network.V[39].veinsmobility posx ETV
vector 217 Network.V[39].veinsmobility posy ETV
vector 218 Network.V[39].veinsmobility speed ETV
vector 219 Network.V[39].veinsmobility acceleration ETV
vector 220 Network.V[39].veinsmobility co2emission ETV
vector 221 Network.V[40].veinsmobility posx ETV
vector 222 Network.V[40].veinsmobility posy ETV
vector 223 Network.V[40].veinsmobility speed ETV
vector 224 Network.V[40].veinsmobility acceleration ETV
vector 225 Network.V[40].veinsmobility co2emission ETV
vector 226 Network.V[41].veinsmobility posx ETV
vector 227 Network.V[41].veinsmobility posy ETV
vector 228 Network.V[41].veinsmobility speed ETV
vector 229 Network.V[41].veinsmobility acceleration ETV
vector 230 Network.V[41].veinsmobility co2emission ETV
vector 231 Network.V[42].veinsmobility posx ETV
vector 232 Network.V[42].veinsmobility posy ETV
vector 233 Network.V[42].veinsmobility speed ETV
vector 234 Network.V[17].appl "No of CRL Pieces" ETV
vector 235 Network.V[18].appl "No of CRL Pieces" ETV
vector 236 Network.V[20].appl "No of CRL Pieces" ETV
vector 237 Network.V[21].appl "No of CRL Pieces" ETV
vector 238 Network.V[22].appl "No of CRL Pieces" ETV
vector 239 Network.V[23].appl "No of CRL Pieces" ETV
vector 240 Network.V[39].appl "No of CRL Pieces" ETV
vector 241 Network.V[42].veinsmobility acceleration ETV
vector 242 Network.V[42].veinsmobility co2emission ETV
vector 243 Network.V[43].veinsmobility posx ETV
vector 244 Network.V[43].veinsmobility posy ETV
vector 245 Network.V[43].veinsmobility speed ETV
vector 246 Network.V[43].veinsmobility acceleration ETV
vector 247 Network.V[43].veinsmobility co2emission ETV
vector 248 Network.V[44].veinsmobility posx ETV
vector 249 Network.V[44].veinsmobility posy ETV
vector 250 Network.V[44].veinsmobility speed ETV
vector 251 Network.V[44].veinsmobility acceleration ETV
vector 252 Network.V[44].veinsmobility co2emission ETV
vector 253 Network.V[45].veinsmobility posx ETV
vector 254 Network.V[45].veinsmobility posy ETV
vector 255 Network.V[45].veinsmobility speed ETV
vector 256 Network.V[45].veinsmobility acceleration ETV
vector 257 Network.V[45].veinsmobility co2emission ETV
vector 258 Network.V[46].veinsmobility posx ETV
vector 259 Network.V[46].veinsmobility posy ETV
vector 260 Network.V[46].veinsmobility speed ETV
vector 261 Network.V[46].veinsmobility acceleration ETV
vector 262 Network.V[46].veinsmobility co2emission ETV
vector 263 Network.V[47].veinsmobility posx ETV
vector 264 Network.V[47].veinsmobility posy ETV
vector 265 Network.V[47].veinsmobility speed ETV
vector 266 Network.V[47].veinsmobility acceleration ETV
vector 267 Network.V[47].veinsmobility co2emission ETV
vector 268 Network.V[48].veinsmobility posx ETV
vector 269 Network.V[48].veinsmobility posy ETV
vector 270 Network.V[48].veinsmobility speed ETV
vector 271 Network.V[48].veinsmobility acceleration ETV
vector 272 Network.V[48].veinsmobility co2emission ETV
vector 273 Network.V[49].veinsmobility posx ETV
vector 274 Network.V[49].veinsmobility posy ETV
vector 275 Network.V[24].appl "No of CRL Pieces" ETV
vector 276 Network.V[25].appl "No of CRL Pieces" ETV
vector 277 Network.V[27].appl "No of CRL Pieces" ETV
vector 278 Network.V[28].appl "No of CRL Pieces" ETV
vector 279 Network.V[29].appl "No of CRL Pieces" ETV
vector 280 Network.V[30].appl "No of CRL Pieces" ETV
vector 281 Network.V[31].appl "No of CRL Pieces" ETV
vector 282 Network.V[49].veinsmobility speed ETV
vector 283 Network.V[49].veinsmobility acceleration ETV
vector 284 Network.V[49].veinsmobility co2emission ETV
vector 285 Network.V[50].veinsmobility posx ETV
vector 286 Network.V[50].veinsmobility posy ETV
vector 287 Network.V[50].veinsmobility speed ETV
vector 288 Network.V[50].veinsmobility acceleration ETV
vector 289 Network.V[50].veinsmobility co2emission ETV
vector 290 Network.V[51].veinsmobility posx ETV
vector 291 Network.V[51].veinsmobility posy ETV
vector 292 Network.V[51].veinsmobility speed ETV
vector 293 Network.V[51].veinsmobility acceleration ETV
vector 294 Network.V[51].veinsmobility co2emission ETV
vector 295 Network.V[52].veinsmobility posx ETV
vector 296 Network.V[52].veinsmobility posy ETV
vector 297 Network.V[52].veinsmobility speed ETV
vector 298 Network.V[52].veinsmobility acceleration ETV
vector 299 Network.V[52].veinsmobility co2emission ETV
vector 300 Network.V[53].veinsmobility posx ETV
vector 301 Network.V[53].veinsmobility posy ETV
vector 302 Network.V[53].veinsmobility speed ETV
vector 303 Network.V[53].veinsmobility acceleration ETV
vector 304 Network.V[53].veinsmobility co2emission ETV
vector 305 Network.V[54].veinsmobility posx ETV
vector 306 Network.V[54].veinsmobility posy ETV
vector 307 Network.V[54].veinsmobility speed ETV
vector 308 Network.V[54].veinsmobility acceleration ETV
vector 309 Network.V[54].veinsmobility co2emission ETV
vector 310 Network.V[55].veinsmobility posx ETV
vector 311 Network.V[55].veinsmobility posy ETV
vector 312 Network.V[55].veinsmobility speed ETV
vector 313 Network.V[55].veinsmobility acceleration ETV
vector 314 Network.V[55].veinsmobility co2emission ETV
vector 315 Network.V[34].appl "No of CRL Pieces" ETV
vector 316 Network.V[35].appl "No of CRL Pieces" ETV
vector 317 Network.V[36].appl "No of CRL Pieces" ETV
vector 318 Network.V[37].appl "No of CRL Pieces" ETV
vector 319 Network.V[38].appl "No of CRL Pieces" ETV
vector 320 Network.V[52].appl "No of CRL Pieces" ETV
vector 321 Network.V[56].veinsmobility posx ETV
vector 322 Network.V[56].veinsmobility posy ETV
vector 323 Network.V[56].veinsmobility speed ETV
vector 324 Network.V[56].veinsmobility acceleration ETV
vector 325 Network.V[56].veinsmobility co2emission ETV
vector 326 Network.V[57].veinsmobility posx ETV
vector 327 Network.V[57].veinsmobility posy ETV
vector 328 Network.V[57].veinsmobility speed ETV
vector 329 Network.V[57].veinsmobility acceleration ETV
vector 330 Network.V[57].veinsmobility co2emission ETV
vector 331 Network.V[58].veinsmobility posx ETV
vector 332 Network.V[58].veinsmobility posy ETV
vector 333 Network.V[58].veinsmobility speed ETV
vector 334 Network.V[58].veinsmobility acceleration ETV
vector 335 Network.V[58].veinsmobility co2emission ETV
vector 336 Network.V[59].veinsmobility posx ETV
vector 337 Network.V[59].veinsmobility posy ETV
vector 338 Network.V[59].veinsmobility speed ETV
vector 339 Network.V[59].veinsmobility acceleration ETV
vector 340 Network.V[59].veinsmobility co2emission ETV
vector 341 Network.V[60].veinsmobility posx ETV
vector 342 Network.V[60].veinsmobility posy ETV
vector 343 Network.V[60].veinsmobility speed ETV
vector 344 Network.V[60].veinsmobility acceleration ETV
vector 345 Network.V[60].veinsmobility co2emission ETV
vector 346 Network.V[61].veinsmobility posx ETV
vector 347 Network.V[61].veinsmobility posy ETV
vector 348 Network.V[61].veinsmobility speed ETV
vector 349 Network.V[61].veinsmobility acceleration ETV
vector 350 Network.V[61].veinsmobility co2emission ETV
vector 351 Network.V[62].veinsmobility posx ETV
vector 352 Network.V[62].veinsmobility posy ETV
vector 353 Network.V[62].veinsmobility speed ETV
vector 354 Network.V[40].appl "No of CRL Pieces" ETV
vector 355 Network.V[41].appl "No of CRL Pieces" ETV
vector 356 Network.V[42].appl "No of CRL Pieces" ETV
vector 357 Network.V[43].appl "No of CRL Pieces" ETV
vector 358 Network.V[44].appl "No of CRL Pieces" ETV
vector 359 Network.V[45].appl "No of CRL Pieces" ETV
vector 360 Network.V[59].appl "No of CRL Pieces" ETV
vector 361 Network.V[62].veinsmobility acceleration ETV
vector 362 Network.V[62].veinsmobility co2emission ETV
vector 363 Network.V[63].veinsmobility posx ETV
vector 364 Network.V[63].veinsmobility posy ETV
vector 365 Network.V[63].veinsmobility speed ETV
vector 366 Network.V[63].veinsmobility acceleration ETV
vector 367 Network.V[63].veinsmobility co2emission ETV
vector 368 Network.V[64].veinsmobility posx ETV
vector 369 Network.V[64].veinsmobility posy ETV
vector 370 Network.V[64].veinsmobility speed ETV
vector 371 Network.V[64].veinsmobility acceleration ETV
vector 372 Network.V[64].veinsmobility co2emission ETV
vector 373 Network.V[65].veinsmobility posx ETV
vector 374 Network.V[65].veinsmobility posy ETV
vector 375 Network.V[65].veinsmobility speed ETV
vector 376 Network.V[65].veinsmobility acceleration ETV
vector 377 Network.V[65].veinsmobility co2emission ETV
vector 378 Network.V[66].veinsmobility posx ETV
vector 379 Network.V[66].veinsmobility posy ETV
vector 380 Network.V[66].veinsmobility speed ETV
vector 381 Network.V[66].veinsmobility acceleration ETV
vector 382 Network.V[66].veinsmobility co2emission ETV
vector 383 Network.V[67].veinsmobility posx ETV
vector 384 Network.V[67].veinsmobility posy ETV
vector 385 Network.V[67].veinsmobility speed ETV
vector 386 Network.V[67].veinsmobility acceleration ETV
vector 387 Network.V[67].veinsmobility co2emission ETV
vector 388 Network.V[68].veinsmobility posx ETV
vector 389 Network.V[68].veinsmobility posy ETV
vector 390 Network.V[68].veinsmobility speed ETV
vector 391 Network.V[68].veinsmobility acceleration ETV
vector 392 Network.V[68].veinsmobility co2emission ETV
vector 393 Network.V[69].veinsmobility posx ETV
vector 394 Network.V[69].veinsmobility posy ETV
vector 395 Network.V[46].appl "No of CRL Pieces" ETV
vector 396 Network.V[47].appl "No of CRL Pieces" ETV
vector 397 Network.V[48].appl "No of CRL Pieces" ETV
vector 398 Network.V[49].appl "No of CRL Pieces" ETV
vector 399 Network.V[50].appl "No of CRL Pieces" ETV
vector 400 Network.V[51].appl "No of CRL Pieces" ETV
vector 401 Network.V[66].appl "No of CRL Pieces" ETV
vector 402 Network.V[69].veinsmobility speed ETV
vector 403 Network.V[69].veinsmobility acceleration ETV
vector 404 Network.V[69].veinsmobility co2emission ETV
vector 405 Network.V[70].veinsmobility posx ETV
vector 406 Network.V[70].veinsmobility posy ETV
vector 407 Network.V[70].veinsmobility speed ETV
vector 408 Network.V[70].veinsmobility acceleration ETV
vector 409 Network.V[70].veinsmobility co2emission ETV
vector 410 Network.V[71].veinsmobility posx ETV
vector 411 Network.V[71].veinsmobility posy ETV
vector 412 Network.V[71].veinsmobility speed ETV
vector 413 Network.V[71].veinsmobility acceleration ETV
vector 414 Network.V[71].veinsmobility co2emission ETV
vector 415 Network.V[72].veinsmobility posx ETV
vector 416 Network.V[72].veinsmobility posy ETV
vector 417 Network.V[72].veinsmobility speed ETV
vector 418 Network.V[72].veinsmobility acceleration ETV
vector 419 Network.V[72].veinsmobility co2emission ETV
vector 420 Network.V[73].veinsmobility posx ETV
vector 421 Network.V[73].veinsmobility posy ETV
vector 422 Network.V[73].veinsmobility speed ETV
vector 423 Network.V[73].veinsmobility acceleration ETV
vector 424 Network.V[73].veinsmobility co2emission ETV
vector 425 Network.V[74].veinsmobility posx ETV
vector 426 Network.V[74].veinsmobility posy ETV
vector 427 Network.V[74].veinsmobility speed ETV
vector 428 Network.V[74].veinsmobility acceleration ETV
vector 429 Network.V[74].veinsmobility co2emission ETV
vector 430 Network.V[75].veinsmobility posx ETV
vector 431 Network.V[75].veinsmobility posy ETV
vector 432 Network.V[75].veinsmobility speed ETV
vector 433 Network.V[75].veinsmobility acceleration ETV
vector 434 Network.V[75].veinsmobility co2emission ETV
vector 435 Network.V[53].appl "No of CRL Pieces" ETV
vector 436 Network.V[54].appl "No of CRL Pieces" ETV
vector 437 Network.V[55].appl "No of CRL Pieces" ETV
vector 438 Network.V[76].veinsmobility posx ETV
vector 439 Network.V[76].veinsmobility posy ETV
vector 440 Network.V[76].veinsmobility speed ETV
vector 441 Network.V[76].veinsmobility acceleration ETV
vector 442 Network.V[76].veinsmobility co2emission ETV
vector 443 Network.V[77].veinsmobility posx ETV
vector 444 Network.V[77].veinsmobility posy ETV
vector 445 Network.V[77].veinsmobility speed ETV
vector 446 Network.V[77].veinsmobility acceleration ETV
vector 447 Network.V[77].veinsmobility co2emission ETV
vector 448 Network.V[78].veinsmobility posx ETV
vector 449 Network.V[78].veinsmobility posy ETV
vector 450 Network.V[78].veinsmobility speed ETV
vector 451 Network.V[78].veinsmobility acceleration ETV
vector 452 Network.V[78].veinsmobility co2emission ETV
vector 453 Network.V[79].veinsmobility posx ETV
vector 454 Network.V[79].veinsmobility posy ETV
vector 455 Network.V[79].veinsmobility speed ETV
vector 456 Network.V[79].veinsmobility acceleration ETV
vector 457 Network.V[79].veinsmobility co2emission ETV
vector 458 Network.V[80].veinsmobility posx ETV
vector 459 Network.V[80].veinsmobility posy ETV
vector 460 Network.V[80].veinsmobility speed ETV
vector 461 Network.V[80].veinsmobility acceleration ETV
vector 462 Network.V[80].veinsmobility co2emission ETV
vector 463 Network.V[81].veinsmobility posx ETV
vector 464 Network.V[81].veinsmobility posy ETV
vector 465 Network.V[81].veinsmobility speed ETV
vector 466 Network.V[81].veinsmobility acceleration ETV
vector 467 Network.V[81].veinsmobility co2emission ETV
vector 468 Network.V[82].veinsmobility posx ETV
vector 469 Network.V[82].veinsmobility posy ETV
vector 470 Network.V[82].veinsmobility speed ETV
vector 471 Network.V[56].appl "No of CRL Pieces" ETV
vector 472 Network.V[57].appl "No of CRL Pieces" ETV
vector 473 Network.V[58].appl "No of CRL Pieces" ETV
vector 474 Network.V[60].appl "No of CRL Pieces" ETV
vector 475 Network.V[61].appl "No of CRL Pieces" ETV
vector 476 Network.V[62].appl "No of CRL Pieces" ETV
vector 477 Network.V[63].appl "No of CRL Pieces" ETV
vector 478 Network.V[64].appl "No of CRL Pieces" ETV
vector 479 Network.V[65].appl "No of CRL Pieces" ETV
vector 480 Network.V[79].appl "No of CRL Pieces" ETV
vector 481 Network.V[82].veinsmobility acceleration ETV
vector 482 Network.V[82].veinsmobility co2emission ETV
vector 483 Network.V[83].veinsmobility posx ETV
vector 484 Network.V[83].veinsmobility posy ETV
vector 485 Network.V[83].veinsmobility speed ETV
vector 486 Network.V[83].veinsmobility acceleration ETV
vector 487 Network.V[83].veinsmobility co2emission ETV
115	265785	68.44578344902	1
115	265878	68.44896744902	2
115	265972	68.45216444902	3
115	266066	68.45536144902	4
115	266160	68.45855844902	5
115	266254	68.46176844902	6
115	266348	68.46493944902	7
115	266442	68.46811044902	8
115	266537	68.47129444902	9
115	266631	68.47450444902	10
115	266727	68.47771444902	11
115	266928	68.48092444902	12
115	267021	68.48410844902	13
115	267298	68.490465494954	14
115	267404	68.493675494954	15
115	267546	68.496859494954	16
115	267695	68.500069494954	17
115	267786	68.503279494954	18
115	267880	68.506463494954	19
115	267975	68.509634494954	20
4	108	3	4.1962556146115
4	141	4	4.6765885426193
4	229	5	5.9822455727343
4	360	6	6.7469998477461
4	491	7	8.9023657158011
4	682	8	3.651678681686
4	1428	9	1.6857621818206
4	1673	10	2.3276633668785
4	2063	11	2.0995306276608
4	2452	12	1.7923040941768
4	2842	13	2.0305681317735
4	3321	14	1.9844951865828
4	3871	15	2.2187318873595
4	4419	16	2.1416854339172
4	5169	17	1.8896148890835
4	5919	18	2.0499339673421
4	6669	19	0.973
4	7566	20	0.973
4	8554	21	3.236958348016
4	9541	22	7.0694109561587
4	10796	23	7.2974163894139
4	12050	24	8.7433911631671
4	13305	25	1.9831721788576
4	14873	26	2.116835898497
4	16430	27	1.9244585801898
4	17986	28	1.8775583559564
4	21252	29	1.9545657515643
4	23668	30	2.0931646705581
4	26277	31	2.2926746988581
4	29100	32	1.993865292131
4	31821	33	1.6968396252803
4	34540	34	2.4149847823944
4	37687	35	1.6983583398882
4	40932	36	1.9906198998388
4	44065	37	2.3442713071536
4	47728	38	1.7018725964397
4	51476	39	2.0993392475273
4	55163	40	1.9585122345881
4	58991	41	2.4691677522194
4	63218	42	1.9170802753567
4	67424	43	1.8345014514108
4	71790	44	2.0838538984303
4	76580	45	2.0539801513469
4	81378	46	2.0668686152862
4	86550	47	1.9813596940184
4	91871	48	2.1840996762636
4	98460	49	2.0987681125428
4	104747	50	1.8592856847688
4	111524	51	2.0145873760113
4	118162	52	2.0950692067684
4	125234	53	1.8080099866508
4	132582	54	1.9870007069688
4	139987	55	2.2415869227426
4	147942	56	2.0614496349521
4	156260	57	2.0646020593826
4	164756	58	1.8102089718445
4	173416	59	2.1453880261281
4	182646	60	1.9826536733129
4	191734	61	2.0673636130683
4	201594	62	2.0538817544551
4	211019	63	2.1528270365066
4	220423	64	2.0265038417738
4	230019	65	1.9764402783138
4	239719	66	2.2347131127692
4	249805	67	2.0405446651404
4	261280	68	1.6487905152147
4	275656	69	2.0126291187762
4	291449	70	2.0466796925005
4	307810	71	2.3433989621326
4	321550	72	0.973
4	335147	73	0.973
4	348513	74	4.8809554156367
4	365515	75	6.6811452761601
4	381732	76	8.1607584221603
4	399086	77	6.9480584672652
4	416186	78	1.6680322027993
4	433131	79	2.2170514259717
4	450161	80	2.1579993066844
4	468100	81	1.8393252185798
4	486266	82	2.1131063774542
4	509207	83	2.157506963768
4	526403	84	2.0867532276998
4	547856	85	1.9721338004887
4	567677	86	1.8000889448787
4	588259	87	2.0655927143501
4	609277	88	2.1236171019815
4	632699	89	1.8979343131076
4	656057	90	2.2156768175481
4	681131	91	2.1479163480387
4	707137	92	1.9028703189759
4	733694	93	1.9274090838955
4	759400	94	2.0077586487826
4	786319	95	2.0511097794732
4	813787	96	2.0576484682309
4	839797	97	2.2398922754829
4	865043	98	1.9069349143407
4	892184	99	1.9432214712872
4	918858	100	2.1439613436349
4	947343	101	1.8168896615362
4	976248	102	2.1233006114287
4	1002903	103	2.1130242583451
4	1034424	104	2.0088001748926
4	1065062	105	1.9072621324086
4	1093069	106	2.2140373373517
4	1119104	107	2.1770614278808
4	1146722	108	1.6473510828978
4	1172551	109	2.1220983905492
4	1197461	110	1.9751750017376
4	1224822	111	2.0960799393481
4	1258046	112	1.8831767790609
4	1288386	113	2.2460956727086
4	1320051	114	1.8324400030243
4	1346540	115	2.3879104851153
4	1374073	116	1.6666890233496
4	1398653	117	2.1857539942143
4	1423380	118	2.1120842252302
4	1449152	119	2.1211551333534
4	1477796	120	1.7936195303491
4	1509362	121	2.2148160768082
4	1535451	122	1.8619680915987
4	1560552	123	2.0258853731746
4	1586089	124	2.304380476416
4	1622903	125	1.6887067812302
4	1651999	126	2.0733073570021
4	1681668	127	2.1023355462812
4	1708533	128	2.0793892076523
4	1741312	129	1.8544662206567
4	1771703	130	2.4259796074968
4	1809140	131	1.633853726441
4	1840939	132	2.1557066895618
4	1866889	133	2.0528665696243
4	1897538	134	1.912038644498
4	1926899	135	2.0057614883071
4	1956632	136	2.2439569957465
4	1984263	137	1.8440580280714
4	2015549	138	2.231711462374
4	2047114	139	1.9850053294315
4	2082216	140	1.9980235595548
4	2116105	141	2.0975280706569
4	2152607	142	2.0729929956751
4	2191043	143	1.9615701670856
4	2229774	144	2.0809115709552
4	2273715	145	1.8061360510748
4	2317406	146	2.2506757699835
4	2364502	147	1.8061733875953
4	2405546	148	2.4266845615448
4	2457064	149	2.0192126891949
4	2507342	150	1.7642446806966
4	2551011	151	2.1464322636876
4	2603253	152	1.954085001403
4	2652446	153	2.1942935692296
4	2695159	154	1.721247569189
4	2740301	155	2.0240866259417
4	2782018	156	2.1690471500905
4	2824985	157	2.2978220226587
4	2870358	158	1.9699951794538
4	2918016	159	2.041236054439
4	2965999	160	2.1134871274209
4	3014187	161	1.9036851063429
4	3062296	162	2.1413264045017
4	3110813	163	1.8950788450201
4	3156869	164	2.1235722209708
4	3202291	165	2.0612404299833
4	3251724	166	1.8999094614842
4	3301062	167	2.0705621398081
4	3354959	168	1.9611367237514
4	3396374	169	2.2556808060981
4	3427714	170	1.9290670990496
4	3457366	171	2.1365950768377
4	3487590	172	1.9872740217513
4	3521553	173	2.009453645548
4	3551596	174	1.9884640791529
4	3586194	175	1.8229391595762
4	3615507	176	2.3789436116768
4	3645807	177	1.9044186435818
4	3676879	178	2.1589494721561
4	3707206	179	1.8396713411021
4	3743931	180	2.0696270191915
4	3776099	181	2.0111236607463
4	3818715	182	1.9642910512727
4	3850241	183	2.1731615557441
4	3882253	184	1.923572434874
4	3914322	185	1.8561023258353
4	3943343	186	2.1890582187141
4	3972404	187	2.1963956888293
4	4003200	188	1.9231637928399
4	4042140	189	2.1054147024235
4	4088509	190	1.7188260663154
4	4137662	191	2.4031119214083
4	4185064	192	1.8265887841823
4	4227314	193	1.8918554453362
4	4271998	194	2.0771229812591
4	4320339	195	2.1191228175185
4	4366296	196	2.0232267690783
4	4413834	197	2.1252008054669
4	4460807	198	2.0275077178617
4	4508388	199	2.0412729242551
4	4558667	200	1.7874619867738
4	4608527	201	2.2859641989041
4	4655254	202	1.7940359853847
4	4706053	203	2.1799404191352
4	4753301	204	1.9272899846583
4	4800973	205	1.9695069431442
4	4848178	206	2.247800618249
4	4898810	207	1.9354210695658
4	4953965	208	2.0193439936341
4	5009794	209	1.9710458469821
4	5055504	210	2.392101304659
4	5099348	211	1.9927077527417
4	5145844	212	1.8397637646392
4	5195219	213	1.9840400683757
4	5243387	214	2.3213577844599
4	5295601	215	1.8937752237764
4	5343144	216	1.8274126550796
4	5391186	217	2.3702998795124
4	5441903	218	1.9728895981744
4	5491768	219	1.9947872757439
4	5540893	220	1.845617191009
4	5590092	221	2.1789838711519
4	5641389	222	1.9398426027184
4	5689080	223	1.9001388053087
4	5738024	224	2.0537167387739
4	5789744	225	2.3818261828939
4	5842305	226	1.7837090017641
4	5892566	227	2.2168901721487
4	5943615	228	1.9771353540298
4	5998778	229	1.866469389554
4	6054709	230	2.0279100775716
4	6111470	231	1.9000183733777
4	6167201	232	2.155909497764
4	6216432	233	2.2403197427168
4	6266967	234	1.7402993602827
4	6312530	235	2.1019548025287
4	6363498	236	2.1422076955629
4	6415350	237	1.9422290772013
4	6473938	238	1.9718870457347
4	6530383	239	2.1092965685402
4	6591082	240	1.9707630538624
4	6659749	241	1.9644605793706
4	6724840	242	2.0439016836958
4	6789332	243	2.1522768550494
4	6847254	244	2.2749420380641
4	6895654	245	1.7960235898673
4	6950737	246	1.870149620829
4	7000341	247	2.0116192457564
4	7055507	248	2.3000415812287
4	7123448	249	0.973
4	7194634	250	0.973
4	7267220	251	6.2155201129428
4	7335872	252	6.9426786212708
3	108	3	1.9133529532584
3	141	4	1.6952873393311
3	229	5	1.8731499400432
3	360	6	1.8034025248489
3	491	7	2.1224504257739
3	682	8	0.47851136310433
3	1428	9	-0.1021267059911
3	1673	10	0.086452728209551
3	2063	11	0.018149402965792
3	2452	12	-0.071146251906175
3	2842	13	-0.0001373288989992
3	3321	14	-0.013471481548622
3	3871	15	0.054527352924923
3	4419	16	0.03063477210002
3	5169	17	-0.04292928970186
3	5919	18	0.0046075960877356
3	6669	19	-2.4534173319781
3	7566	20	-4.5
3	8554	21	0.8935116339894
3	9541	22	2.2078255666373
3	10796	23	1.8858743545134
3	12050	24	1.9903831391631
3	13305	25	-0.01549494290026
3	14873	26	0.023465231521987
3	16430	27	-0.032681161146611
3	17986	28	-0.045395484422334
3	21252	29	-0.021798015409148
3	23668	30	0.019004409639164
3	26277	31	0.075803257238585
3	29100	32	-0.012492124584968
3	31821	33	-0.098418530665803
3	34540	34	0.11205169297755
3	37687	35	-0.098285225864965
3	40932	36	-0.01064266787842
3	44065	37	0.091707072502468
3	47728	38	-0.096865584938786
3	51476	39	0.021350334375166
3	55163	40	-0.020129852422979
3	58991	41	0.12754734932445
3	63218	42	-0.035107081409079
3	67424	43	-0.058123281914741
3	71790	44	0.015779600332026
3	76580	45	0.0066701874043797
3	81378	46	0.010192284216172
3	86550	47	-0.014827134867664
3	91871	48	0.044105808557942
3	98460	49	0.018181241797283
3	104747	50	-0.051492602068466
3	111524	51	-0.0050966037251055
3	118162	52	0.018296227052343
3	125234	53	-0.065421910630539
3	132582	54	-0.011582619075197
3	139987	55	0.062391626026946
3	147942	56	0.0084849686850799
3	156260	57	0.0091393382777465
3	164756	58	-0.064856647045817
3	173416	59	0.034172988792415
3	182646	60	-0.013924592840485
3	191734	61	0.011007046941668
3	201594	62	0.0067783149331806
3	211019	63	0.035106239686721
3	220423	64	-0.0023704322986315
3	230019	65	-0.016764806038699
3	239719	66	0.058098005878273
3	249805	67	0.0005279496987356
3	261280	68	-0.11307939741528
3	275656	69	-0.0042316347081215
3	291449	70	0.0057685952470639
3	307810	71	0.091050112515221
3	321550	72	-2.598181629278
3	335147	73	-4.5
3	348513	74	1.6141663366905
3	365515	75	1.9674479348469
3	381732	76	2.0734577935305
3	399086	77	1.4561270096891
3	416186	78	-0.10729147155071
3	433131	79	0.054895354490727
3	450161	80	0.036124135965947
3	468100	81	-0.056995702513959
3	486266	82	0.023857689527794
3	509207	83	0.035887326465454
3	526403	84	0.014430570646654
3	547856	85	-0.01900723606348
3	567677	86	-0.068357068288606
3	588259	87	0.010541806844994
3	609277	88	0.026970727464649
3	632699	89	-0.039115454021376
3	656057	90	0.053862404460089
3	681131	91	0.032648311303928
3	707137	92	-0.038956657010131
3	733694	93	-0.030791588313878
3	759400	94	-0.0066424664109945
3	786319	95	0.0060977504285979
3	813787	96	0.0078052465082141
3	839797	97	0.060013508324046
3	865043	98	-0.037713673899415
3	892184	99	-0.026174776835834
3	918858	100	0.032579503944145
3	947343	101	-0.063035905060826
3	976248	102	0.027582935572138
3	1002903	103	0.023756794685031
3	1034424	104	-0.0070456224540241
3	1065062	105	-0.036268282788805
3	1093069	106	0.053466656929812
3	1119104	107	0.041100041202736
3	1146722	108	-0.11342956024222
3	1172551	109	0.027575471245218
3	1197461	110	-0.015790211500134
3	1224822	111	0.019690123212058
3	1258046	112	-0.042638254987542
3	1288386	113	0.063690714961849
3	1320051	114	-0.057965367154683
3	1346540	115	0.10416653290857
3	1374073	116	-0.10745216409443
3	1398653	117	0.046229086213279
3	1423380	118	0.023514178059996
3	1449152	119	0.025394806491676
3	1477796	120	-0.070123969523701
3	1509362	121	0.05377569567645
3	1535451	122	-0.04982492672978
3	1560552	123	-0.00087602079613092
3	1586089	124	0.079375873252284
3	1622903	125	-0.1010160947917
3	1651999	126	0.013532487608026
3	1681668	127	0.021514236293733
3	1708533	128	0.014224878873211
3	1741312	129	-0.051406734401827
3	1771703	130	0.11500627390342
3	1809140	131	-0.11731649283087
3	1840939	132	0.037494972553104
3	1866889	133	0.0066204329836186
3	1897538	134	-0.034399984232149
3	1926899	135	-0.0062071811757054
3	1956632	136	0.062807197936344
3	1984263	137	-0.054763080677949
3	2015549	138	0.059015492813197
3	2047114	139	-0.013975105474238
3	2082216	140	-0.0098069754173054
3	2116105	141	0.019237040039153
3	2152607	142	0.011573406711687
3	2191043	143	-0.020956001298037
3	2229774	144	0.014142121695913
3	2273715	145	-0.065922225145624
3	2317406	146	0.064693366650026
3	2364502	147	-0.065880628703161
3	2405546	148	0.11515686275204
3	2457064	149	-0.0054930684855208
3	2507342	150	-0.079169188719241
3	2551011	151	0.033730446444824
3	2603253	152	-0.0228520826553
3	2652446	153	0.047151762775611
3	2695159	154	-0.091206070086919
3	2740301	155	-0.00063311950070855
3	2782018	156	0.041333502004855
3	2824985	157	0.076955872832331
3	2870358	158	-0.019675534043927
3	2918016	159	0.0014335568435495
3	2965999	160	0.022174404172693
3	3014187	161	-0.038941256871913
3	3062296	162	0.030695147525986
3	3110813	163	-0.04121100856457
3	3156869	164	0.025922144111247
3	3202291	165	0.0071923485631125
3	3251724	166	-0.039595530030784
3	3301062	167	0.010853665114846
3	3354959	168	-0.021078646411189
3	3396374	169	0.064385496126489
3	3427714	170	-0.031554398436565
3	3457366	171	0.029159537090454
3	3487590	172	-0.014684538582804
3	3521553	173	-0.0078666105773308
3	3551596	174	-0.013697546005714
3	3586194	175	-0.06131455638446
3	3615507	176	0.1008924189629
3	3645807	177	-0.038706410704181
3	3676879	178	0.035774679987226
3	3707206	179	-0.057385696403216
3	3743931	180	0.010741776425856
3	3776099	181	-0.0064688647538418
3	3818715	182	-0.01983351490926
3	3850241	183	0.041050446596929
3	3882253	184	-0.032217842522078
3	3914322	185	-0.050955639351159
3	3943343	186	0.04699437828036
3	3972404	187	0.047569927864243
3	4003200	188	-0.032647112903652
3	4042140	189	0.020928164378274
3	4088509	190	-0.091782979732379
3	4137662	191	0.10875057560159
3	4185064	192	-0.060795214870012
3	4227314	193	-0.040233581850771
3	4271998	194	0.014695980667602
3	4320339	195	0.026387274002191
3	4366296	196	-0.0021348645421675
3	4413834	197	0.027381560134234
3	4460807	198	-0.0016384923108852
3	4508388	199	0.0023850808525463
3	4558667	200	-0.071337920916267
3	4608527	201	0.075058642441872
3	4655254	202	-0.069512550472281
3	4706053	203	0.044363746291491
3	4753301	204	-0.030078826393
3	4800973	205	-0.016976084767375
3	4848178	206	0.063993390803224
3	4898810	207	-0.028184901357163
3	4953965	208	-0.0030630180658768
3	5009794	209	-0.016976034734398
3	5055504	210	0.10479507165262
3	5099348	211	-0.013211421454326
3	5145844	212	-0.057094136055094
3	5195219	213	-0.013706459412351
3	5243387	214	0.083830608546268
3	5295601	215	-0.041779491452035
3	5343144	216	-0.059950716574676
3	5391186	217	0.098461431174073
3	5441903	218	-0.018828529044985
3	5491768	219	-0.011973386614118
3	5540893	220	-0.054853362506256
3	5590092	221	0.043154953562189
3	5641389	222	-0.027196423076093
3	5689080	223	-0.037979120847304
3	5738024	224	0.0076740621007048
3	5789744	225	0.10181095059728
3	5842305	226	-0.073669197976123
3	5892566	227	0.053598402959759
3	5943615	228	-0.017086343464907
3	5998778	229	-0.048676233110017
3	6054709	230	-0.0005028710095214
3	6111470	231	-0.037615004268009
3	6167201	232	0.037678894139825
3	6216432	233	0.060744162921329
3	6266967	234	-0.085698609841057
3	6312530	235	0.021687922640703
3	6363498	236	0.032629402803723
3	6415350	237	-0.026155869879295
3	6473938	238	-0.016820155980531
3	6530383	239	0.023457866050304
3	6591082	240	-0.017334249692505
3	6659749	241	-0.018673455752431
3	6724840	242	0.0049182024737817
3	6789332	243	0.03610487366328
3	6847254	244	0.070166818364523
3	6895654	245	-0.070058906949125
3	6950737	246	-0.046709825969302
3	7000341	247	-0.0042825089534748
3	7055507	248	0.079118450649549
3	7123448	249	-3.0745351618249
3	7194634	250	-4.4863291299924
3	7267220	251	2.228807697075
3	7335872	252	2.0289484944078
2	75	2	4.1061966058897
2	108	3	6.0195495591482
2	141	4	7.7148368984793
2	229	5	9.5879868385225
2	360	6	11.391389363371
2	491	7	13.513839789145
2	682	8	13.99235115225
2	1428	9	13.890224446259
2	1673	10	13.976677174468
2	2063	11	13.994826577434
2	2452	12	13.923680325528
2	2842	13	13.923542996629
2	3321	14	13.91007151508
2	3871	15	13.964598868005
2	4419	16	13.995233640105
2	5169	17	13.952304350403
2	5919	18	13.956911946491
2	6669	19	11.503494614513
2	7566	20	7.0034946145128
2	8554	21	7.8970062485022
2	9541	22	10.10483181514
2	10796	23	11.990706169653
2	12050	24	13.981089308816
2	13305	25	13.965594365916
2	14873	26	13.989059597438
2	16430	27	13.956378436291
2	17986	28	13.910982951869
2	21252	29	13.88918493646
2	23668	30	13.908189346099
2	26277	31	13.983992603337
2	29100	32	13.971500478752
2	31821	33	13.873081948087
2	34540	34	13.985133641064
2	37687	35	13.886848415199
2	40932	36	13.876205747321
2	44065	37	13.967912819823
2	47728	38	13.871047234884
2	51476	39	13.89239756926
2	55163	40	13.872267716837
2	58991	41	13.999815066161
2	63218	42	13.964707984752
2	67424	43	13.906584702837
2	71790	44	13.922364303169
2	76580	45	13.929034490574
2	81378	46	13.93922677479
2	86550	47	13.924399639922
2	91871	48	13.96850544848
2	98460	49	13.986686690277
2	104747	50	13.935194088209
2	111524	51	13.930097484484
2	118162	52	13.948393711536
2	125234	53	13.882971800906
2	132582	54	13.87138918183
2	139987	55	13.933780807857
2	147942	56	13.942265776542
2	156260	57	13.95140511482
2	164756	58	13.886548467774
2	173416	59	13.920721456567
2	182646	60	13.906796863726
2	191734	61	13.917803910668
2	201594	62	13.924582225601
2	211019	63	13.959688465288
2	220423	64	13.957318032989
2	230019	65	13.940553226951
2	239719	66	13.998651232829
2	249805	67	13.999179182528
2	261280	68	13.886099785112
2	275656	69	13.881868150404
2	291449	70	13.887636745651
2	307810	71	13.978686858166
2	321550	72	11.380505228889
2	335147	73	6.8805052288885
2	348513	74	8.4946715655791
2	365515	75	10.462119500426
2	381732	76	12.535577293956
2	399086	77	13.991704303646
2	416186	78	13.884412832095
2	433131	79	13.939308186586
2	450161	80	13.975432322551
2	468100	81	13.918436620038
2	486266	82	13.942294309565
2	509207	83	13.978181636031
2	526403	84	13.992612206677
2	547856	85	13.973604970614
2	567677	86	13.905247902325
2	588259	87	13.91578970917
2	609277	88	13.942760436635
2	632699	89	13.903644982614
2	656057	90	13.957507387074
2	681131	91	13.990155698378
2	707137	92	13.951199041368
2	733694	93	13.920407453054
2	759400	94	13.913764986643
2	786319	95	13.919862737071
2	813787	96	13.927667983579
2	839797	97	13.987681491903
2	865043	98	13.949967818004
2	892184	99	13.923793041168
2	918858	100	13.956372545112
2	947343	101	13.893336640052
2	976248	102	13.920919575624
2	1002903	103	13.944676370309
2	1034424	104	13.937630747855
2	1065062	105	13.901362465066
2	1093069	106	13.954829121996
2	1119104	107	13.995929163198
2	1146722	108	13.882499602956
2	1172551	109	13.910075074201
2	1197461	110	13.894284862701
2	1224822	111	13.913974985913
2	1258046	112	13.871336730926
2	1288386	113	13.935027445888
2	1320051	114	13.877062078733
2	1346540	115	13.981228611642
2	1374073	116	13.873776447547
2	1398653	117	13.92000553376
2	1423380	118	13.94351971182
2	1449152	119	13.968914518312
2	1477796	120	13.898790548788
2	1509362	121	13.952566244465
2	1535451	122	13.902741317735
2	1560552	123	13.901865296939
2	1586089	124	13.981241170191
2	1622903	125	13.8802250754
2	1651999	126	13.893757563008
2	1681668	127	13.915271799301
2	1708533	128	13.929496678174
2	1741312	129	13.878089943773
2	1771703	130	13.993096217676
2	1809140	131	13.875779724845
2	1840939	132	13.913274697398
2	1866889	133	13.919895130382
2	1897538	134	13.88549514615
2	1926899	135	13.879287964974
2	1956632	136	13.94209516291
2	1984263	137	13.887332082232
2	2015549	138	13.946347575046
2	2047114	139	13.932372469571
2	2082216	140	13.922565494154
2	2116105	141	13.941802534193
2	2152607	142	13.953375940905
2	2191043	143	13.932419939607
2	2229774	144	13.946562061303
2	2273715	145	13.880639836157
2	2317406	146	13.945333202807
2	2364502	147	13.879452574104
2	2405546	148	13.994609436856
2	2457064	149	13.989116368371
2	2507342	150	13.909947179651
2	2551011	151	13.943677626096
2	2603253	152	13.920825543441
2	2652446	153	13.967977306216
2	2695159	154	13.87677123613
2	2740301	155	13.876138116629
2	2782018	156	13.917471618634
2	2824985	157	13.994427491466
2	2870358	158	13.974751957422
2	2918016	159	13.976185514266
2	2965999	160	13.998359918438
2	3014187	161	13.959418661566
2	3062296	162	13.990113809092
2	3110813	163	13.948902800528
2	3156869	164	13.974824944639
2	3202291	165	13.982017293202
2	3251724	166	13.942421763171
2	3301062	167	13.953275428286
2	3354959	168	13.932196781875
2	3396374	169	13.996582278002
2	3427714	170	13.965027879565
2	3457366	171	13.994187416655
2	3487590	172	13.979502878073
2	3521553	173	13.971636267495
2	3551596	174	13.95793872149
2	3586194	175	13.896624165105
2	3615507	176	13.997516584068
2	3645807	177	13.958810173364
2	3676879	178	13.994584853351
2	3707206	179	13.937199156948
2	3743931	180	13.947940933374
2	3776099	181	13.94147206862
2	3818715	182	13.921638553711
2	3850241	183	13.962689000308
2	3882253	184	13.930471157786
2	3914322	185	13.879515518434
2	3943343	186	13.926509896715
2	3972404	187	13.974079824579
2	4003200	188	13.941432711675
2	4042140	189	13.962360876054
2	4088509	190	13.870577896321
2	4137662	191	13.979328471923
2	4185064	192	13.918533257053
2	4227314	193	13.878299675202
2	4271998	194	13.89299565587
2	4320339	195	13.919382929872
2	4366296	196	13.91724806533
2	4413834	197	13.944629625464
2	4460807	198	13.942991133153
2	4508388	199	13.945376214006
2	4558667	200	13.874038293089
2	4608527	201	13.949096935531
2	4655254	202	13.879584385059
2	4706053	203	13.92394813135
2	4753301	204	13.893869304957
2	4800973	205	13.87689322019
2	4848178	206	13.940886610993
2	4898810	207	13.912701709636
2	4953965	208	13.90963869157
2	5009794	209	13.892662656836
2	5055504	210	13.997457728488
2	5099348	211	13.984246307034
2	5145844	212	13.927152170979
2	5195219	213	13.913445711567
2	5243387	214	13.997276320113
2	5295601	215	13.955496828661
2	5343144	216	13.895546112086
2	5391186	217	13.99400754326
2	5441903	218	13.975179014215
2	5491768	219	13.963205627601
2	5540893	220	13.908352265095
2	5590092	221	13.951507218657
2	5641389	222	13.924310795581
2	5689080	223	13.886331674734
2	5738024	224	13.894005736834
2	5789744	225	13.995816687432
2	5842305	226	13.922147489456
2	5892566	227	13.975745892415
2	5943615	228	13.95865954895
2	5998778	229	13.90998331584
2	6054709	230	13.909480444831
2	6111470	231	13.871865440563
2	6167201	232	13.909544334703
2	6216432	233	13.970288497624
2	6266967	234	13.884589887783
2	6312530	235	13.906277810424
2	6363498	236	13.938907213227
2	6415350	237	13.912751343348
2	6473938	238	13.895931187368
2	6530383	239	13.919389053418
2	6591082	240	13.902054803725
2	6659749	241	13.883381347973
2	6724840	242	13.888299550447
2	6789332	243	13.92440442411
2	6847254	244	13.994571242474
2	6895654	245	13.924512335525
2	6950737	246	13.877802509556
2	7000341	247	13.873520000603
2	7055507	248	13.952638451252
2	7123448	249	10.878103289427
2	7194634	250	6.3917741594348
2	7267220	251	8.6205818565098
2	7335872	252	10.649530350918
1	42	1	1578.4613427464
1	75	2	1578.4613427464
1	108	3	1579.5715045081
1	141	4	1581.5561876604
1	229	5	1586.4898643075
1	360	6	1592.7177137369
1	491	7	1600.2534592729
1	682	8	1609.1769437566
1	1428	9	1619.0710908128
1	1673	10	1629.0037637418
1	2063	11	1638.9341008412
1	2452	12	1649.1129276818
1	2842	13	1661.0453354148
1	3321	14	1673.5713017788
1	3871	15	1682.4825292248
1	4419	16	1691.8131453674
1	5169	17	1695.5671389326
1	5919	18	1697.3762977775
1	6669	19	1698.7149431584
1	7566	20	1699.9531973498
1	8554	21	1700.8030368192
1	9541	22	1701.4822415169
1	10796	23	1709.488976148
1	12050	24	1720.5600911779
1	13305	25	1733.5392477075
1	14873	26	1747.3162704222
1	16430	27	1761.1584832035
1	17986	28	1775.0702432813
1	21252	29	1788.9649324082
1	23668	30	1802.8657313576
1	26277	31	1816.7641749373
1	29100	32	1830.6712168986
1	31821	33	1844.5682703312
1	34540	34	1858.4757581847
1	37687	35	1872.3796654344
1	40932	36	1886.2682729438
1	44065	37	1900.1617258992
1	47728	38	1914.0672918586
1	51476	39	1927.95593304
1	55163	40	1941.8192613758
1	58991	41	1955.7024557721
1	63218	42	1969.5841215905
1	67424	43	1983.4787444612
1	71790	44	1997.3802024601
1	76580	45	2011.2714909082
1	81378	46	2025.1553793969
1	86550	47	2039.0458765477
1	91871	48	2052.9329446238
1	98460	49	2066.8462265795
1	104747	50	2080.7728807703
1	111524	51	2094.6498483503
1	118162	52	2107.3969092406
1	125234	53	2116.410831539
1	132582	54	2120.9360540062
1	139987	55	2120.5048353085
1	147942	56	2120.0344859883
1	156260	57	2119.5641121576
1	164756	58	2119.0944308629
1	173416	59	2118.6240558857
1	182646	60	2118.1536666537
1	191734	61	2117.6824006466
1	201594	62	2117.2121830918
1	211019	63	2116.7411177447
1	220423	64	2116.2712858524
1	230019	65	2115.8005333487
1	239719	66	2114.7955725584
1	249805	67	2112.8364102887
1	261280	68	2110.6440530941
1	275656	69	2106.1704403665
1	291449	70	2101.6975887315
1	307810	71	2096.6391956527
1	321550	72	2089.5697793076
1	335147	73	2082.9376931852
1	348513	74	2078.419863862
1	365515	75	2074.2936624894
1	381732	76	2067.3736373968
1	399086	77	2058.9511591028
1	416186	78	2049.1102951029
1	433131	79	2038.9478712408
1	450161	80	2028.7758523691
1	468100	81	2018.5996289225
1	486266	82	2008.4287304608
1	509207	83	1998.2495835368
1	526403	84	1988.0651562605
1	547856	85	1977.9077978879
1	567677	86	1968.1884612162
1	588259	87	1958.4779514531
1	609277	88	1948.7639992675
1	632699	89	1939.0549603878
1	656057	90	1929.3436047509
1	681131	91	1919.6330251861
1	707137	92	1909.910822208
1	733694	93	1900.1872029733
1	759400	94	1890.4840445621
1	786319	95	1880.7721485039
1	813787	96	1871.0513723353
1	839797	97	1861.0772373844
1	865043	98	1851.0875595547
1	892184	99	1841.096139106
1	918858	100	1831.1202287339
1	947343	101	1821.144089778
1	976248	102	1811.1678648908
1	1002903	103	1801.1912086597
1	1034424	104	1791.209887621
1	1065062	105	1781.2482476477
1	1093069	106	1771.277584523
1	1119104	107	1761.5227281116
1	1146722	108	1751.9260671614
1	1172551	109	1742.3262181729
1	1197461	110	1732.5843797447
1	1224822	111	1722.8299162164
1	1258046	112	1713.086449923
1	1288386	113	1703.3381465003
1	1320051	114	1693.5765614985
1	1346540	115	1683.8264469272
1	1374073	116	1674.0761652095
1	1398653	117	1664.3203321155
1	1423380	118	1654.5670952313
1	1449152	119	1644.823870291
1	1477796	120	1635.0678587342
1	1509362	121	1625.336210235
1	1535451	122	1615.5782095939
1	1560552	123	1605.8165506711
1	1586089	124	1596.0659276582
1	1622903	125	1586.3064208571
1	1651999	126	1576.5483956924
1	1681668	127	1566.7923985375
1	1708533	128	1557.0515624536
1	1741312	129	1547.2834782302
1	1771703	130	1537.3798678434
1	1809140	131	1527.4649110558
1	1840939	132	1517.5608619647
1	1866889	133	1507.6508360393
1	1897538	134	1497.737215165
1	1926899	135	1488.4719928391
1	1956632	136	1479.3458707612
1	1984263	137	1470.2179115769
1	2015549	138	1461.0960824257
1	2047114	139	1451.9691580441
1	2082216	140	1443.4222617447
1	2116105	141	1435.3820641451
1	2152607	142	1427.3446103698
1	2191043	143	1419.3110376056
1	2229774	144	1411.2766984925
1	2273715	145	1404.4971290641
1	2317406	146	1398.5528459009
1	2364502	147	1392.5984726185
1	2405546	148	1386.6349876709
1	2457064	149	1382.2383795483
1	2507342	150	1377.9442636594
1	2551011	151	1373.6595358783
1	2603253	152	1370.8648780324
1	2652446	153	1368.6529144663
1	2695159	154	1366.2626287099
1	2740301	155	1363.9400776494
1	2782018	156	1361.5025957329
1	2824985	157	1359.1761908894
1	2870358	158	1357.0937092975
1	2918016	159	1355.3227530839
1	2965999	160	1353.8606677661
1	3014187	161	1352.4001931148
1	3062296	162	1350.9373894874
1	3110813	163	1349.4757576613
1	3156869	164	1348.0170385102
1	3202291	165	1346.554069207
1	3251724	166	1345.0926451068
1	3301062	167	1343.6316944081
1	3354959	168	1342.169206298
1	3396374	169	1340.8016817579
1	3427714	170	1339.8476453517
1	3457366	171	1338.88675889
1	3487590	172	1337.7580269873
1	3521553	173	1336.5687706266
1	3551596	174	1335.3785909312
1	3586194	175	1334.1870099697
1	3615507	176	1332.9974499373
1	3645807	177	1331.807691264
1	3676879	178	1330.6170756808
1	3707206	179	1329.4270746866
1	3743931	180	1328.235561965
1	3776099	181	1327.0451201648
1	3818715	182	1325.8546584239
1	3850241	183	1324.6631557113
1	3882253	184	1323.4921323741
1	3914322	185	1322.3833192652
1	3943343	186	1321.2740472825
1	3972404	187	1320.1657407004
1	4003200	188	1319.044544382
1	4042140	189	1318.2097313078
1	4088509	190	1317.4871134162
1	4137662	191	1316.2875415171
1	4185064	192	1314.6404569708
1	4227314	193	1312.7569282195
1	4271998	194	1310.8746230919
1	4320339	195	1312.2296878621
1	4366296	196	1309.318593815
1	4413834	197	1306.1411478268
1	4460807	198	1302.9660233352
1	4508388	199	1299.789149831
1	4558667	200	1296.3137446754
1	4608527	201	1292.5515033305
1	4655254	202	1288.7923334399
1	4706053	203	1284.9714143453
1	4753301	204	1280.8085952131
1	4800973	205	1276.6481711147
1	4848178	206	1272.0269843545
1	4898810	207	1266.8293056842
1	4953965	208	1261.6324179135
1	5009794	209	1256.4920189464
1	5055504	210	1251.6446111212
1	5099348	211	1246.7924843412
1	5145844	212	1241.621282829
1	5195219	213	1235.922153743
1	5243387	214	1230.2174944794
1	5295601	215	1224.5151331984
1	5343144	216	1218.7807038762
1	5391186	217	1218.998228698
1	5441903	218	1231.5931130555
1	5491768	219	1244.7946764436
1	5540893	220	1257.9787944583
1	5590092	221	1271.1796462424
1	5641389	222	1284.3789763469
1	5689080	223	1297.5799748562
1	5738024	224	1310.7715928406
1	5789744	225	1323.9813642986
1	5842305	226	1337.1741084298
1	5892566	227	1350.376634392
1	5943615	228	1363.5687719872
1	5998778	229	1376.7589407666
1	6054709	230	1389.8083805079
1	6111470	231	1402.8152361419
1	6167201	232	1415.7949445834
1	6216432	233	1428.7715739543
1	6266967	234	1441.7532074079
1	6312530	235	1454.7179528624
1	6363498	236	1467.7475299882
1	6415350	237	1480.7783373231
1	6473938	238	1493.7928807372
1	6530383	239	1505.0216565598
1	6591082	240	1499.1603543786
1	6659749	241	1493.1545708561
1	6724840	242	1487.153926569
1	6789332	243	1481.1516754813
1	6847254	244	1475.3022421869
1	6895654	245	1469.5472078808
1	6950737	246	1463.6936589731
1	7000341	247	1457.8323443765
1	7055507	248	1451.6295216335
1	7123448	249	1445.2875036169
1	7194634	250	1439.4949099924
1	7267220	251	1435.6688813828
1	7335872	252	1431.865068363
0	42	1	2414.8476884116
0	75	2	2414.8476884116
0	108	3	2411.8243290941
0	141	4	2407.1592244543
0	229	5	2402.288200066
0	360	6	2396.1394374635
0	491	7	2388.6993875942
0	682	8	2379.889221533
0	1428	9	2370.1207192459
0	1673	10	2360.3141803208
0	2063	11	2350.5099475634
0	2452	12	2341.0010868867
0	2842	13	2334.5620136983
0	3321	14	2337.6803779466
0	3871	15	2348.3497968862
0	4419	16	2358.6961674725
0	5169	17	2371.6616533546
0	5919	18	2385.4706804305
0	6669	19	2399.3588350668
0	7566	20	2412.4541998667
0	8554	21	2421.4418196582
0	9541	22	2428.417609864
0	10796	23	2431.468930052
0	12050	24	2433.1513403206
0	13305	25	2435.1237040944
0	14873	26	2437.2173147583
0	16430	27	2438.6437980286
0	17986	28	2439.5074353185
0	21252	29	2440.517813261
0	23668	30	2441.5286354903
0	26277	31	2442.5392864447
0	29100	32	2443.5505626462
0	31821	33	2444.5611125134
0	34540	34	2445.5724211388
0	37687	35	2446.5834693939
0	40932	36	2447.5934051003
0	44065	37	2448.6036931522
0	47728	38	2449.6148620235
0	51476	39	2450.6248001783
0	55163	40	2449.5880553933
0	58991	41	2448.4757357414
0	63218	42	2447.3635385588
0	67424	43	2446.250303259
0	71790	44	2445.1365203297
0	76580	45	2444.0235521834
0	81378	46	2442.9111769209
0	86550	47	2441.7982721732
0	91871	48	2440.6856421625
0	98460	49	2439.7151308154
0	104747	50	2438.7725309408
0	111524	51	2437.9056889905
0	118162	52	2432.8785054281
0	125234	53	2422.5273191113
0	132582	54	2409.439604845
0	139987	55	2395.517893619
0	147942	56	2381.592286239
0	156260	57	2367.6659531716
0	164756	58	2353.7601239877
0	173416	59	2339.8337569573
0	182646	60	2325.9069679289
0	191734	61	2311.9542202253
0	201594	62	2298.0325140053
0	211019	63	2284.0857072632
0	220423	64	2270.1754193477
0	230019	65	2256.2378749268
0	239719	66	2242.3725172955
0	249805	67	2228.5568932705
0	261280	68	2214.8035730832
0	275656	69	2201.6130456962
0	291449	70	2188.4247624045
0	307810	71	2175.5107078577
0	321550	72	2163.5018647154
0	335147	73	2152.2359160049
0	348513	74	2144.5614629743
0	365515	75	2138.2558950796
0	381732	76	2131.5955681979
0	399086	77	2123.7056670481
0	416186	78	2114.4870687368
0	433131	79	2104.967243704
0	450161	80	2095.4384303803
0	468100	81	2085.9056783495
0	486266	82	2076.3779145891
0	509207	83	2066.8424239405
0	526403	84	2057.3019868316
0	547856	85	2047.7591241145
0	567677	86	2037.7608240946
0	588259	87	2027.7716043318
0	609277	88	2017.7788433422
0	632699	89	2007.7911366803
0	656057	90	1997.8010467655
0	681131	91	1987.8117551972
0	707137	92	1977.8105066026
0	733694	93	1967.8078011014
0	759400	94	1957.8261436883
0	786319	95	1947.8354978411
0	813787	96	1937.8357170075
0	839797	97	1928.0943876163
0	865043	98	1918.3458898404
0	892184	99	1908.595691517
0	918858	100	1898.860628812
0	947343	101	1889.1253430418
0	976248	102	1879.3899734151
0	1002903	103	1869.6541828585
0	1034424	104	1859.9138401168
0	1065062	105	1850.1927032812
0	1093069	106	1840.4627611398
0	1119104	107	1830.4943832025
0	1146722	108	1820.3899234756
0	1172551	109	1810.2821070175
0	1197461	110	1800.3072354572
0	1224822	111	1790.3538284535
0	1258046	112	1780.4116429748
0	1288386	113	1770.4645217122
0	1320051	114	1760.5038479915
0	1346540	115	1750.5548786415
0	1374073	116	1740.6057387365
0	1398653	117	1730.6509342341
0	1423380	118	1720.6987788925
0	1449152	119	1710.7568396883
0	1477796	120	1700.8018530838
0	1509362	121	1690.8717264237
0	1535451	122	1680.914710167
0	1560552	123	1670.9539610179
0	1586089	124	1661.0044728565
0	1622903	125	1651.0459197217
0	1651999	126	1641.088878441
0	1681668	127	1631.133906532
0	1708533	128	1621.1944049059
0	1741312	129	1611.4016974772
0	1771703	130	1601.5908368229
0	1809140	131	1591.7687360296
0	1840939	132	1581.95744078
0	1866889	133	1572.1402246708
0	1897538	134	1562.3194472806
0	1926899	135	1551.9221256066
0	1956632	136	1541.3717610573
0	1984263	137	1530.8192726985
0	2015549	138	1520.27387104
0	2047114	139	1509.7225789776
0	2082216	140	1498.7459730455
0	2116105	141	1487.3369203644
0	2152607	142	1475.9317611735
0	2191043	143	1464.5321091436
0	2229774	144	1453.1313696638
0	2273715	145	1440.9810547153
0	2317406	146	1428.37280161
0	2364502	147	1415.7431466343
0	2405546	148	1403.0941651607
0	2457064	149	1389.8238873205
0	2507342	150	1376.5141631895
0	2551011	151	1363.2335377458
0	2603253	152	1349.6644354427
0	2652446	153	1335.903612455
0	2695159	154	1322.2844071649
0	2740301	155	1308.5434932974
0	2782018	156	1294.8376443418
0	2824985	157	1281.0982487688
0	2870358	158	1267.3308680035
0	2918016	159	1253.5230468827
0	2965999	160	1239.6590378741
0	3014187	161	1225.8103017703
0	3062296	162	1211.9394814936
0	3110813	163	1198.079772646
0	3156869	164	1184.2476828147
0	3202291	165	1170.3752915382
0	3251724	166	1156.5175524234
0	3301062	167	1142.6643022699
0	3354959	168	1128.7964738311
0	3396374	169	1114.9195256233
0	3427714	170	1101.0064947121
0	3457366	171	1087.09277308
0	3487590	172	1073.1940094858
0	3521553	173	1059.3295235746
0	3551596	174	1045.454273331
0	3586194	175	1031.562686957
0	3615507	176	1017.6946608142
0	3645807	177	1003.8243188869
0	3676879	178	989.94398700946
0	3707206	179	976.07082008105
0	3743931	180	962.18002925336
0	3776099	181	948.30172335601
0	3818715	182	934.42318499158
0	3850241	183	920.53251085198
0	3882253	184	906.64519986149
0	3914322	185	892.7792307022
0	3943343	186	878.90752320935
0	3972404	187	865.04788829049
0	4003200	188	851.15055305208
0	4042140	189	837.24482767389
0	4088509	190	823.33443326002
0	4137662	191	809.46681111713
0	4185064	192	795.63520164602
0	4227314	193	781.83242588444
0	4271998	194	768.03861702629
0	4320339	195	753.56771098508
0	4366296	196	739.93396619707
0	4413834	197	726.35413698584
0	4460807	198	712.78422943095
0	4508388	199	699.20684691181
0	4558667	200	685.71620551473
0	4608527	201	672.26203093457
0	4655254	202	658.81884020194
0	4706053	203	645.40229339118
0	4753301	204	632.07980250649
0	4800973	205	618.76497657609
0	4848178	206	605.5909563204
0	4898810	207	592.65048638859
0	4953965	208	579.71198553033
0	5009794	209	566.73144802963
0	5055504	210	553.6544718215
0	5099348	211	540.56476516603
0	5145844	212	527.5969918645
0	5195219	213	514.86569167289
0	5243387	214	502.12203760166
0	5295601	215	489.38351699908
0	5343144	216	476.68061928626
0	5391186	217	464.31813278235
0	5441903	218	458.54576970637
0	5491768	219	454.06063902681
0	5540893	220	449.58401126228
0	5590092	221	445.10170159675
0	5641389	222	440.61956127337
0	5689080	223	436.13447082217
0	5738024	224	431.65366202267
0	5789744	225	427.16713215667
0	5842305	226	422.68912263226
0	5892566	227	418.21837646177
0	5943615	228	413.75248787331
0	5998778	229	409.2791097525
0	6054709	230	404.38573488605
0	6111470	231	399.31672242878
0	6167201	232	394.25828973495
0	6216432	233	389.20105701196
0	6266967	234	384.1418741052
0	6312530	235	379.08927276451
0	6363498	236	374.12068298308
0	6415350	237	369.16597165435
0	6473938	238	364.21744436526
0	6530383	239	357.65389608347
0	6591082	240	345.01951615291
0	6659749	241	332.44290033728
0	6724840	242	319.87704651256
0	6789332	243	307.30782791297
0	6847254	244	294.66797556402
0	6895654	245	281.96690633683
0	6950737	246	269.34005897248
0	7000341	247	256.69646003423
0	7055507	248	244.22894317296
0	7123448	249	231.80669483321
0	7194634	250	220.46061597636
0	7267220	251	212.966490697
0	7335872	252	206.25397376029
vector 488 Network.V[84].veinsmobility posx ETV
vector 489 Network.V[84].veinsmobility posy ETV
vector 490 Network.V[84].veinsmobility speed ETV
vector 491 Network.V[84].veinsmobility acceleration ETV
vector 492 Network.V[84].veinsmobility co2emission ETV
116	265789	68.445783589822	1
116	265882	68.448967589822	2
116	265976	68.452164589822	3
116	266070	68.455361589822	4
116	266164	68.458558589822	5
116	266258	68.461768589822	6
116	266352	68.464939589822	7
116	266446	68.468110589822	8
116	266541	68.471294589822	9
116	266635	68.474504589822	10
116	266731	68.477714589822	11
116	266932	68.480924589822	12
116	267025	68.484108589822	13
116	267408	68.493675635756	14
116	267550	68.496859635756	15
116	267699	68.500069635756	16
116	267790	68.503279635756	17
116	267884	68.506463635756	18
116	267979	68.509634635756	19
116	619111	88.490374340348	20
9	360	6	3.9274001426868
9	491	7	5.2041356246368
9	682	8	5.7574507674447
9	1428	9	7.0006276784153
9	1673	10	8.2432295261252
9	2063	11	3.9110016848773
9	2452	12	1.7792042638201
9	2842	13	2.0579365757541
9	3321	14	2.3818636967155
9	3871	15	1.7037407999188
9	4419	16	2.0152488537881
9	5169	17	2.1655550639215
9	5919	18	1.906797412239
9	6669	19	2.2849654495652
9	7566	20	1.9716653983805
9	8554	21	0.973
9	9541	22	0.973
9	10796	23	0.973
9	12050	24	2.2554772362628
9	13305	25	5.6120472675651
9	14873	26	7.5119842129131
9	16430	27	8.4455276517466
9	17986	28	3.3560730035355
9	21252	29	1.8466200733259
9	23668	30	2.0660268329645
9	26277	31	2.2281549844786
9	29100	32	1.9335288120447
9	31821	33	1.9767670407741
9	34540	34	1.9283950769156
9	37687	35	2.0949799016024
9	40932	36	1.9290667558988
9	44065	37	2.3468857079218
9	47728	38	1.8793040227889
9	51476	39	1.8954681876561
9	55163	40	2.2553467174174
9	58991	41	1.7429567241042
9	63218	42	2.0192482635441
9	67424	43	2.1827359052182
9	71790	44	2.0164367628106
9	76580	45	2.1348602115454
9	81378	46	2.0878872407227
9	86550	47	1.8642059318509
9	91871	48	2.0401536442479
9	98460	49	1.9464315106901
9	104747	50	2.2632042711189
9	111524	51	1.851180617826
9	118162	52	2.2486511283506
9	125234	53	2.0047870143605
9	132582	54	2.1193583924862
9	139987	55	1.9065956504161
9	147942	56	1.8305118457369
9	156260	57	2.2544630998412
9	164756	58	1.9497933768092
9	173416	59	2.199742909699
9	182646	60	1.9416842431598
9	191734	61	2.0340583936544
9	201594	62	1.8947902862501
9	211019	63	2.3236156337703
9	220423	64	1.8116807487081
9	230019	65	2.1067187558746
9	239719	66	2.0440470145686
9	249805	67	1.9485115452067
9	261280	68	2.1878187851485
9	275656	69	1.6791237400594
9	291449	70	2.2755265645048
9	307810	71	2.0225291815531
9	321550	72	1.9399893034582
9	335147	73	2.0029455902709
9	348513	74	1.4663345211208
9	365515	75	0.973
9	381732	76	0.973
9	399086	77	2.0711335261948
9	416186	78	6.4152831024102
9	433131	79	7.8881081638602
9	450161	80	8.7525284671264
9	468100	81	1.815189301835
9	486266	82	2.1926999225795
9	509207	83	2.0363789456198
9	526403	84	2.2022797105907
9	547856	85	1.6943401481553
9	567677	86	2.3980130110749
9	588259	87	1.9363832529257
9	609277	88	2.1682681767827
9	632699	89	1.6918937064968
9	656057	90	2.1131931668759
9	681131	91	2.2104031609639
9	707137	92	1.7227981158715
9	733694	93	2.1979337916806
9	759400	94	2.0197021153789
9	786319	95	2.0391171435245
9	813787	96	2.2261991945464
9	839797	97	1.7515996111392
9	865043	98	2.2995223407801
9	892184	99	1.8008227620704
9	918858	100	2.1857101524767
9	947343	101	1.9087755896745
9	976248	102	2.0627447358658
9	1002903	103	1.9851118107104
9	1034424	104	2.1093420628985
9	1065062	105	2.2129857683168
9	1093069	106	1.8308220216017
9	1119104	107	2.1444722311404
9	1146722	108	2.0355784928867
9	1172551	109	2.0225109202385
9	1197461	110	1.8904941269999
9	1224822	111	1.9609544694714
9	1258046	112	2.1225900669388
9	1288386	113	1.8719619172019
9	1320051	114	2.2944565722334
9	1346540	115	2.1139814038152
9	1374073	116	2.0497258004765
9	1398653	117	1.8214044611061
9	1423380	118	2.1974299774128
9	1449152	119	2.0587102346889
9	1477796	120	1.7775142086521
9	1509362	121	2.1897334323985
9	1535451	122	1.996556277867
9	1560552	123	1.8780334086171
9	1586089	124	1.9486210960065
9	1622903	125	2.3653409168875
9	1651999	126	1.9000292435893
9	1681668	127	2.0717212867176
9	1708533	128	1.8445072379646
9	1741312	129	2.1162534272185
9	1771703	130	2.2776331997634
9	1809140	131	1.7725872185708
9	1840939	132	2.2912967597894
9	1866889	133	1.8528600408083
9	1897538	134	1.9330331343468
9	1926899	135	2.0465755532814
9	1956632	136	2.2659055273814
9	1984263	137	1.8676913138819
9	2015549	138	2.0910132406566
9	2047114	139	2.0043570379106
9	2082216	140	2.030793134949
9	2116105	141	1.9423234639898
9	2152607	142	1.927848582712
9	2191043	143	2.2698294292933
9	2229774	144	1.7770096234678
9	2273715	145	2.3367194719381
9	2317406	146	1.859703679116
9	2364502	147	2.1330729430549
9	2405546	148	2.1358660794021
9	2457064	149	1.7570872917791
9	2507342	150	2.2526062298388
9	2551011	151	2.1288224415809
9	2603253	152	1.9635057791053
9	2652446	153	1.8895605130103
9	2695159	154	2.2263741095757
9	2740301	155	1.882075928944
9	2782018	156	2.2532002763803
9	2824985	157	1.8360167560027
9	2870358	158	2.1534761844155
9	2918016	159	1.8707748688179
9	2965999	160	2.211812015765
9	3014187	161	1.7071373030442
9	3062296	162	2.0361644423435
9	3110813	163	2.090897582556
9	3156869	164	2.2242422079567
9	3202291	165	1.8485453953928
9	3251724	166	1.9435434161483
9	3301062	167	2.2639487509947
9	3354959	168	2.04134454436
9	3396374	169	2.1980837882338
9	3427714	170	1.7122954482887
9	3457366	171	1.9617700101395
9	3487590	172	2.2580571351396
9	3521553	173	1.9464158018033
9	3551596	174	2.2039698413109
9	3586194	175	1.8283356700218
9	3615507	176	1.9093046019252
9	3645807	177	2.2496876104686
9	3676879	178	1.9172335011079
9	3707206	179	2.2031702198692
9	3743931	180	1.9128046296068
9	3776099	181	2.0741380357498
9	3818715	182	2.206946044161
9	3850241	183	1.6977101226333
9	3882253	184	2.0710706900758
9	3914322	185	2.1246940168337
9	3943343	186	2.2740383306431
9	3972404	187	1.8151068318442
9	4003200	188	1.869098500666
9	4042140	189	2.4129979409229
9	4088509	190	1.7603412831536
9	4137662	191	2.0733850188152
9	4185064	192	2.1471488825316
9	4227314	193	2.0174689976898
9	4271998	194	1.8350922917858
9	4320339	195	1.9898603202048
9	4366296	196	2.2449202398961
9	4413834	197	1.7834002454186
9	4460807	198	2.3534778961154
9	4508388	199	1.9263154075013
9	4558667	200	1.9117406178101
9	4608527	201	2.2153396623226
9	4655254	202	2.1495808614158
9	4706053	203	1.8519233670163
9	4753301	204	1.7982110008827
9	4800973	205	2.2778778856224
9	4848178	206	2.1611597807434
9	4898810	207	2.0511165726411
9	4953965	208	1.6955796131478
9	5009794	209	1.9973569401021
9	5055504	210	2.4076150134145
9	5099348	211	1.6459064172448
9	5145844	212	2.1693475303698
9	5195219	213	2.0103060408626
9	5243387	214	2.1753267943563
9	5295601	215	1.9402899071139
9	5343144	216	1.890580111367
9	5391186	217	2.1184459462784
9	5441903	218	2.0161838066024
9	5491768	219	2.3522199613807
9	5540893	220	2.0244965247655
9	5590092	221	2.0054810000144
9	5641389	222	1.8747331035091
9	5689080	223	1.884105168067
9	5738024	224	2.3552330606887
9	5789744	225	1.9025861064728
9	5842305	226	2.1177541213211
9	5892566	227	1.8327643103778
9	5943615	228	2.0565288504906
9	5998778	229	2.2417680412703
9	6054709	230	1.8674707020891
9	6111470	231	2.0072146071567
9	6167201	232	2.2628442401779
9	6216432	233	1.7601438708128
9	6266967	234	2.038141983627
9	6312530	235	2.0233157137119
9	6363498	236	1.897370025797
9	6415350	237	2.0100120941404
9	6473938	238	2.2105380380186
9	6530383	239	1.8580811952534
9	6591082	240	2.2677238800809
9	6659749	241	2.205852434029
9	6724840	242	2.0061687324658
9	6789332	243	1.9252849730664
9	6847254	244	2.0469721261069
9	6895654	245	2.0698305343494
9	6950737	246	1.9658883555811
9	7000341	247	2.0223060274946
9	7055507	248	1.8851178340664
9	7123448	249	2.2064066402525
9	7194634	250	1.9789459055838
9	7267220	251	1.9775833046122
9	7335872	252	0.973
9	7398095	253	0.973
9	7461662	254	2.2039078310101
9	7525458	255	6.0439799902434
8	360	6	1.7932460927567
8	491	7	1.9587017235276
8	682	8	1.7806746143266
8	1428	9	1.8842620940111
8	1673	10	1.9413380167005
8	2063	11	0.5583961215709
8	2452	12	-0.073857417434921
8	2842	13	0.0092065779981212
8	3321	14	0.10214026641101
8	3871	15	-0.096765000070445
8	4419	16	-0.0036033386224883
8	5169	17	0.039975998615846
8	5919	18	-0.036115438612178
8	6669	19	0.074191348995083
8	7566	20	-0.018364551486448
8	8554	21	-0.84955461610103
8	9541	22	-1.1580047743662
8	10796	23	-4.4608324981877
8	12050	24	0.38092674279862
8	13305	25	1.7156944106473
8	14873	26	2.0360211738362
8	16430	27	1.9703013633797
8	17986	28	0.39196811840698
8	21252	29	-0.054819778876846
8	23668	30	0.010270397982096
8	26277	31	0.056614504742901
8	29100	32	-0.029954661100637
8	31821	33	-0.016613695521373
8	34540	34	-0.030163104203529
8	37687	35	0.018933158169965
8	40932	36	-0.029659791311714
8	44065	37	0.091685234303586
8	47728	38	-0.045763628156855
8	51476	39	-0.039857979963999
8	55163	40	0.065247988859191
8	58991	41	-0.08489584519295
8	63218	42	-0.0022564603248618
8	67424	43	0.045091817758511
8	71790	44	-0.0043246553349299
8	76580	45	0.029991914208512
8	81378	46	0.015533079409506
8	86550	47	-0.0495849183877
8	91871	48	0.0027827199501917
8	98460	49	-0.024452327373437
8	104747	50	0.067736270520836
8	111524	51	-0.053276539789513
8	118162	52	0.063070073074195
8	125234	53	-0.0090693579427903
8	132582	54	0.024193826443517
8	139987	55	-0.037865431425162
8	147942	56	-0.058954789221753
8	156260	57	0.065368110591081
8	164756	58	-0.024500538792926
8	173416	59	0.048295230567454
8	182646	60	-0.027506586005911
8	191734	61	-3.7945064249811e-05
8	201594	62	-0.040341942564119
8	211019	63	0.08445247764932
8	220423	64	-0.065610413609539
8	230019	65	0.021565600365866
8	239719	66	0.0028431761614058
8	249805	67	-0.024848260174041
8	261280	68	0.044910243332852
8	275656	69	-0.10373160347343
8	291449	70	0.072071757072118
8	307810	71	-0.0031103654555054
8	321550	72	-0.02690946418792
8	335147	73	-0.0079017184418628
8	348513	74	-0.16497366318824
8	365515	75	-1.6848926053673
8	381732	76	-4.4892687861132
8	399086	77	0.28405570139177
8	416186	78	1.997470962787
8	433131	79	2.0988350649318
8	450161	80	1.9988427420706
8	468100	81	-0.063318411561289
8	486266	82	0.04787723080255
8	509207	83	0.0012825704249551
8	526403	84	0.049021707940847
8	547856	85	-0.099405430622864
8	567677	86	0.10682315822458
8	588259	87	-0.029265006696805
8	609277	88	0.038380603131372
8	632699	89	-0.1004943326558
8	656057	90	0.024492987445557
8	681131	91	0.05169718524674
8	707137	92	-0.090917193812784
8	733694	93	0.049401447521522
8	759400	94	-0.0035681885946541
8	786319	95	0.0021494067646568
8	813787	96	0.055939720121678
8	839797	97	-0.082825279594399
8	865043	98	0.077868373056408
8	892184	99	-0.068378643156029
8	918858	100	0.044884284511209
8	947343	101	-0.036422044509091
8	976248	102	0.0091787743428728
8	1002903	103	-0.013543945976998
8	1034424	104	0.022761303887236
8	1065062	105	0.051837298679166
8	1093069	106	-0.059922826110851
8	1119104	107	0.032420193073339
8	1146722	108	6.4998678864114e-05
8	1172551	109	-0.0037058353074837
8	1197461	110	-0.041796183458063
8	1224822	111	-0.020209220252001
8	1258046	112	0.02716161247343
8	1288386	113	-0.04625822901493
8	1320051	114	0.07725084295962
8	1346540	115	0.022868344553281
8	1374073	116	0.003685471189673
8	1398653	117	-0.062443528294096
8	1423380	118	0.04799817603547
8	1449152	119	0.0065934695675978
8	1477796	120	-0.075014242276085
8	1509362	121	0.046452402246651
8	1535451	122	-0.010696762092412
8	1560552	123	-0.044767391828353
8	1586089	124	-0.023024488484953
8	1622903	125	0.097962695134338
8	1651999	126	-0.039184950522614
8	1681668	127	0.011599588245154
8	1708533	128	-0.054589124734047
8	1741312	129	0.025782361356541
8	1771703	130	0.071375757772476
8	1809140	131	-0.076592239663006
8	1840939	132	0.075470494809561
8	1866889	133	-0.053231685482897
8	1897538	134	-0.028540046415291
8	1926899	135	0.0051941985101429
8	1956632	136	0.068229565557559
8	1984263	137	-0.048710520348978
8	2015549	138	0.017288791297469
8	2047114	139	-0.0082554838550273
8	2082216	140	-0.00037175524979816
8	2116105	141	-0.025977745337878
8	2152607	142	-0.029464533214922
8	2191043	143	0.070286848202812
8	2229774	144	-0.074459361548069
8	2273715	145	0.089626789095345
8	2317406	146	-0.050767468290868
8	2364502	147	0.029793044384569
8	2405546	148	0.029658873495645
8	2457064	149	-0.080846889601089
8	2507342	150	0.064886637714226
8	2551011	151	0.027203342730646
8	2603253	152	-0.02123924333835
8	2652446	153	-0.042065148605035
8	2695159	154	0.056388453694527
8	2740301	155	-0.044616339365021
8	2782018	156	0.063685772472526
8	2824985	157	-0.058470913642086
8	2870358	158	0.03489453980932
8	2918016	159	-0.047775566366035
8	2965999	160	0.052072390380781
8	3014187	161	-0.095519099792
8	3062296	162	0.0027528130938297
8	3110813	163	0.018523060043808
8	3156869	164	0.056377461815718
8	3202291	165	-0.053878671019337
8	3251724	166	-0.024820306268522
8	3301062	167	0.068539440759924
8	3354959	168	0.0022496086521997
8	3396374	169	0.047270130538383
8	3427714	170	-0.09450829451438
8	3457366	171	-0.019489140016958
8	3487590	172	0.066708318581805
8	3521553	173	-0.025263743156103
8	3551596	174	0.049787310254761
8	3586194	175	-0.060178024864291
8	3615507	176	-0.035057701403275
8	3645807	177	0.064438513617498
8	3676879	178	-0.033552181762644
8	3707206	179	0.050035941279495
8	3743931	180	-0.03528433265863
8	3776099	181	0.012400400063488
8	3818715	182	0.050227913181299
8	3850241	183	-0.098540701419116
8	3882253	184	0.012603236748838
8	3914322	185	0.027710167313925
8	3943343	186	0.069723128527404
8	3972404	187	-0.064639785478358
8	4003200	188	-0.047288752582389
8	4042140	189	0.11094750276767
8	4088509	190	-0.080532332123257
8	4137662	191	0.012407079783733
8	4185064	192	0.033286373021546
8	4227314	193	-0.0050955741596397
8	4271998	194	-0.057795992724133
8	4320339	195	-0.011264941240661
8	4366296	196	0.062737738816068
8	4413834	197	-0.072692720012274
8	4460807	198	0.094222277051303
8	4508388	199	-0.031727886800654
8	4558667	200	-0.035088948525953
8	4608527	201	0.053654024405404
8	4655254	202	0.033026138977148
8	4706053	203	-0.053809231240301
8	4753301	204	-0.068066559904256
8	4800973	205	0.072812334573829
8	4848178	206	0.036862328168935
8	4898810	207	0.0040789077593946
8	4953965	208	-0.099106555955951
8	5009794	209	-0.0086751932161846
8	5055504	210	0.10977227102732
8	5099348	211	-0.11367036009207
8	5145844	212	0.041492751492187
8	5195219	213	-0.0057586893532431
8	5243387	214	0.042061331872828
8	5295601	215	-0.027071745074354
[...]
534	9904046	291	1.7154650872679
534	9964581	292	2.1247221358775
534	10027587	293	1.8440162212151
534	10087749	294	0.973
534	10156409	295	0.973
534	10221106	296	5.9549823432464
534	10279797	297	7.5372801716464
534	10346100	298	7.8508034311539
534	10412746	299	4.0988041363454
534	10482065	300	1.9010395774511
533	8853001	276	1.9041840709466
533	8922405	277	1.9710484040342
533	8999466	278	1.8023791439203
533	9072695	279	1.7599249733915
533	9142695	280	0.97891941427246
533	9210219	281	0.046229237644003
533	9274878	282	-0.019377556974069
533	9345519	283	0.011870803423227
533	9415500	284	0.0023072241526094
533	9487337	285	-0.019045273747761
533	9563131	286	0.044015712998807
533	9633324	287	-0.041164211446885
533	9709197	288	0.012266883961857
533	9778848	289	0.047331794835626
533	9844831	290	-0.018227636714
533	9904046	291	-0.057998459807131
533	9964581	292	0.075550196978728
533	10027587	293	-0.016889764200895
533	10087749	294	-4.0047732105266
533	10156409	295	-0.95
533	10221106	296	1.8920348560112
533	10279797	297	2.0643388469145
533	10346100	298	1.82737005356
533	10412746	299	0.6135564814304
533	10482065	300	-0.038658551271073
532	8780613	275	4.0334593472669
532	8853001	276	5.9376434182135
532	8922405	277	7.9086918222477
532	8999466	278	9.711070966168
532	9072695	279	11.470995939559
532	9142695	280	12.449915353832
532	9210219	281	12.496144591476
532	9274878	282	12.476767034502
532	9345519	283	12.488637837925
532	9415500	284	12.490945062078
532	9487337	285	12.47189978833
532	9563131	286	12.515915501329
532	9633324	287	12.474751289882
532	9709197	288	12.487018173844
532	9778848	289	12.534349968679
532	9844831	290	12.516122331965
532	9904046	291	12.458123872158
532	9964581	292	12.533674069137
532	10027587	293	12.516784304936
532	10087749	294	8.5120110944094
532	10156409	295	7.5620110944094
532	10221106	296	9.4540459504206
532	10279797	297	11.518384797335
532	10346100	298	13.345754850895
532	10412746	299	13.959311332325
532	10482065	300	13.920652781054
531	8708810	274	1578.4637191622
531	8780613	275	1578.4637191622
531	8853001	276	1579.5692775473
531	8922405	277	1581.5141978692
531	8999466	278	1586.4807058154
531	9072695	279	1592.8355569141
531	9142695	280	1600.4578079451
531	9210219	281	1609.2063902654
531	9274878	282	1618.07767733
531	9345519	283	1626.9475792693
531	9415500	284	1635.8323460715
531	9487337	285	1644.7242227392
531	9563131	286	1654.3851527255
531	9633324	287	1666.2261002716
531	9709197	288	1675.9473643061
531	9778848	289	1684.0666196346
531	9844831	290	1692.4411442997
531	9904046	291	1695.495246374
531	9964581	292	1697.1477509094
531	10027587	293	1698.3956130948
531	10087749	294	1699.5736887064
531	10156409	295	1700.5653206008
531	10221106	296	1701.093424499
531	10279797	297	1706.6012954479
531	10346100	298	1717.1131700361
531	10412746	299	1729.4434321392
531	10482065	300	1743.1723057497
530	8708810	274	2414.8412165979
530	8780613	275	2414.8412165979
530	8853001	276	2411.8303938885
530	8922405	277	2407.200681021
530	8999466	278	2402.2972422554
530	9072695	279	2396.0230907643
530	9142695	280	2388.4976339247
530	9210219	281	2379.8601489631
530	9274878	282	2371.1015174715
530	9345519	283	2362.3442535157
530	9415500	284	2353.5723134642
530	9487337	285	2344.7933538349
530	9563131	286	2336.8826618528
530	9633324	287	2333.8732164515
530	9709197	288	2340.6226511193
530	9778848	289	2350.1063353802
530	9844831	290	2359.3925319555
530	9904046	291	2371.1806650665
530	9964581	292	2383.5504786214
530	10027587	293	2395.981706438
530	10087749	294	2408.440642583
530	10156409	295	2418.9278119343
530	10221106	296	2426.0083692175
530	10279797	297	2431.0301067132
530	10346100	298	2432.6275326004
530	10412746	299	2434.5012878202
530	10482065	300	2436.5875815563
539	9072695	279	4.0448861447153
539	9142695	280	5.0298730332532
539	9210219	281	6.3468414339048
539	9274878	282	7.5493979458
539	9345519	283	7.7489433235548
539	9415500	284	3.6238828519243
539	9487337	285	2.1208933814432
539	9563131	286	1.9466366221584
539	9633324	287	2.1139973260539
539	9709197	288	1.9745837029787
539	9778848	289	2.0521105451691
539	9844831	290	2.0736340701012
539	9904046	291	1.8566585209909
539	9964581	292	2.2422893063065
539	10027587	293	1.7250190208521
539	10087749	294	0.973
539	10156409	295	0.973
539	10221106	296	1.4232190776094
539	10279797	297	0.973
539	10346100	298	5.8150874311416
539	10412746	299	6.8119056579331
539	10482065	300	8.237102189342
538	9072695	279	1.9086223383085
538	9142695	280	1.904871757084
538	9210219	281	2.0137313255761
538	9274878	282	2.0327495707408
538	9345519	283	1.7757734687696
538	9415500	284	0.47355456381641
538	9487337	285	0.025393332622478
538	9563131	286	-0.025645719207823
538	9633324	287	0.023416053464171
538	9709197	288	-0.017499935424421
538	9778848	289	0.0053992035635755
538	9844831	290	0.011442985057364
538	9904046	291	-0.051656686835921
538	9964581	292	0.061226883444469
538	10027587	293	-0.09022717691958
538	10087749	294	-2.6840829989
538	10156409	295	-1.7409345527401
538	10221106	296	-0.094961541690317
538	10279797	297	-2.3345118849536
538	10346100	298	1.9446911733667
538	10412746	299	1.9252061667759
538	10482065	300	2.0242806060403
537	8999466	278	3.8318498705856
537	9072695	279	5.7404722088941
537	9142695	280	7.6453439659781
537	9210219	281	9.6590752915542
537	9274878	282	11.691824862295
537	9345519	283	13.467598331065
537	9415500	284	13.941152894881
537	9487337	285	13.966546227504
537	9563131	286	13.940900508296
537	9633324	287	13.96431656176
537	9709197	288	13.946816626335
537	9778848	289	13.952215829899
537	9844831	290	13.963658814956
537	9904046	291	13.912002128121
537	9964581	292	13.973229011565
537	10027587	293	13.883001834645
537	10087749	294	11.198918835745
537	10156409	295	9.4579842830053
537	10221106	296	9.363022741315
537	10279797	297	7.0285108563614
537	10346100	298	8.9732020297281
537	10412746	299	10.898408196504
537	10482065	300	12.922688802544
536	8922405	277	1578.4444627929
536	8999466	278	1578.4444627929
536	9072695	279	1579.4586632065
536	9142695	280	1581.1526757451
536	9210219	281	1585.9860591488
536	9274878	282	1592.212502352
536	9345519	283	1599.864562206
536	9415500	284	1608.8977915002
536	9487337	285	1618.8034283426
536	9563131	286	1628.7218271224
536	9633324	287	1638.6330375159
536	9709197	288	1648.7701009437
536	9778848	289	1660.6081024464
536	9844831	290	1673.291516196
536	9904046	291	1682.206510162
536	9964581	292	1691.5372401169
536	10027587	293	1695.5088746147
536	10087749	294	1697.3307241667
536	10156409	295	1698.563086981
536	10221106	296	1699.4887619438
536	10279797	297	1700.4043588573
536	10346100	298	1701.0082975896
536	10412746	299	1704.6842867667
536	10482065	300	1714.6408269275
535	8922405	277	2414.8936584366
535	8999466	278	2414.8936584366
535	9072695	279	2412.1316354822
535	9142695	280	2407.5576122131
535	9210219	281	2402.7856074541
535	9274878	282	2396.6382332202
535	9345519	283	2389.0833460964
535	9415500	284	2380.1648288642
535	9487337	285	2370.3849826972
535	9563131	286	2360.5925366554
535	9633324	287	2350.8071877159
535	9709197	288	2341.2688877129
535	9778848	289	2334.6346149595
535	9844831	290	2337.3339200548
535	9904046	291	2348.0437296906
535	9964581	292	2358.3902264796
535	10027587	293	2371.2718431309
535	10087749	294	2385.0877807249
535	10156409	295	2397.7528545959
535	10221106	296	2407.5424853598
535	10279797	297	2417.2255340228
535	10346100	298	2424.5382929827
535	10412746	299	2430.7387905195
535	10482065	300	2432.2518255988
544	9274878	282	3.9048085235181
544	9345519	283	5.1934554494041
544	9415500	284	6.7589632619464
544	9487337	285	7.8239933625546
544	9563131	286	8.32713156869
544	9633324	287	1.9934735714024
544	9709197	288	2.2791417065564
544	9778848	289	2.1031576613661
544	9844831	290	1.8256194285247
544	9904046	291	2.2890312931561
544	9964581	292	2.0915495395642
544	10027587	293	1.6310056988945
544	10087749	294	2.0768268781872
544	10156409	295	2.1301110493383
544	10221106	296	2.2704246159701
544	10279797	297	0.973
544	10346100	298	1.7854079475428
544	10412746	299	0.973
544	10482065	300	2.4466621330796
543	9274878	282	1.7651942137699
543	9345519	283	1.9465648654359
543	9415500	284	2.1224548329436
543	9487337	285	2.06679885383
543	9563131	286	1.8834341964335
543	9633324	287	-0.0096319455665483
543	9709197	288	0.073206886670087
543	9778848	289	0.020195494447835
543	9844831	290	-0.060696045181249
543	9904046	291	0.074917549113742
543	9964581	292	0.015798848590348
543	10027587	293	-0.11817624552408
543	10087749	294	0.014675775608048
543	10156409	295	0.029628066499717
543	10221106	296	0.069007897858974
543	10279797	297	-2.5240722303008
543	10346100	298	-0.0059424363362286
543	10412746	299	-3.6613401258495
543	10482065	300	0.44649933202626
542	9210219	281	4.0960880163999
542	9274878	282	5.8612822301698
542	9345519	283	7.8078470956057
542	9415500	284	9.9303019285494
542	9487337	285	11.997100782379
542	9563131	286	13.880534978813
542	9633324	287	13.870903033246
542	9709197	288	13.944109919916
542	9778848	289	13.964305414364
542	9844831	290	13.903609369183
542	9904046	291	13.978526918297
542	9964581	292	13.994325766887
542	10027587	293	13.876149521363
542	10087749	294	13.890825296971
542	10156409	295	13.920453363471
542	10221106	296	13.98946126133
542	10279797	297	11.465389031029
542	10346100	298	11.459446594693
542	10412746	299	7.7981064688433
542	10482065	300	8.2446058008695
541	9142695	280	1578.459494709
541	9210219	281	1578.459494709
541	9274878	282	1579.5485613849
541	9345519	283	1581.4674389958
541	9415500	284	1586.3422770025
541	9487337	285	1592.7407039283
541	9563131	286	1600.6291636005
541	9633324	287	1609.8797672438
541	9709197	288	1619.7981994236
541	9778848	289	1629.7248288672
541	9844831	290	1639.6503528561
541	9904046	291	1649.9008181002
541	9964581	292	1662.0156580387
541	10027587	293	1674.1908668801
541	10087749	294	1683.1538286339
541	10156409	295	1692.4987518843
541	10221106	296	1695.7223362401
541	10279797	297	1697.5028730864
541	10346100	298	1698.6791002713
541	10412746	299	1699.7594698798
541	10482065	300	1700.6797058387
540	9142695	280	2414.852721264
540	9210219	281	2414.852721264
540	9274878	282	2411.8868112558
540	9345519	283	2407.2468461086
540	9415500	284	2402.4339131744
540	9487337	285	2396.1167392221
540	9563131	286	2388.3284542977
540	9633324	287	2379.19532313
540	9709197	288	2369.4028441132
540	9778848	289	2359.6022719286
540	9844831	290	2349.8027911601
540	9904046	291	2340.3856223354
540	9964581	292	2334.4008944521
540	10027587	293	2338.4475840935
540	10087749	294	2349.0941756449
540	10156409	295	2359.4564108468
540	10221106	296	2372.6999817836
540	10279797	297	2386.540384806
540	10346100	298	2398.9797725989
540	10412746	299	2410.4054025288
540	10482065	300	2420.137512192
549	9487337	285	4.3201709660184
549	9563131	286	5.3858474926056
549	9633324	287	6.783291600751
549	9709197	288	6.6219122727993
549	9778848	289	9.0366530754513
549	9844831	290	2.145305448355
549	9904046	291	1.7487301440279
549	9964581	292	2.2424173222072
549	10027587	293	1.8549016441844
549	10087749	294	1.9693474191376
549	10156409	295	2.1010477326255
549	10221106	296	1.9692952997529
549	10279797	297	2.0616720214477
549	10346100	298	2.2860114865459
549	10412746	299	1.7470761661992
549	10482065	300	0.973
548	9487337	285	1.959372084816
548	9563131	286	1.9667331097089
548	9633324	287	2.0751131499209
548	9709197	288	1.6767625445686
548	9778848	289	2.0862187484186
548	9844831	290	0.032703701960299
548	9904046	291	-0.083108002084773
548	9964581	292	0.06228397143539
548	10027587	293	-0.051655728188342
548	10087749	294	-0.016978086510209
548	10156409	295	0.021712345301641
548	10221106	296	-0.017127338421997
548	10279797	297	0.01017191685969
548	10346100	298	0.07451842307113
548	10412746	299	-0.083586296066642
548	10482065	300	-1.3931876531424
547	9415500	284	4.1678804038517
547	9487337	285	6.1272524886677
547	9563131	286	8.0939855983766
547	9633324	287	10.169098748298
547	9709197	288	11.845861292866
547	9778848	289	13.932080041285
547	9844831	290	13.964783743245
547	9904046	291	13.88167574116
547	9964581	292	13.943959712596
547	10027587	293	13.892303984407
547	10087749	294	13.875325897897
547	10156409	295	13.897038243199
547	10221106	296	13.879910904777
547	10279797	297	13.890082821636
547	10346100	298	13.964601244708
547	10412746	299	13.881014948641
547	10482065	300	12.487827295499
546	9345519	283	1578.4604024226
546	9415500	284	1578.4604024226
546	9487337	285	1579.5971959932
546	9563131	286	1581.6822873615
546	9633324	287	1586.8085757168
546	9709197	288	1593.4031085884
546	9778848	289	1601.3316601776
546	9844831	290	1610.5926699759
546	9904046	291	1620.4975385973
546	9964581	292	1630.4117936902
546	10027587	293	1640.3421529457
546	10087749	294	1650.6538694641
546	10156409	295	1662.9626187822
546	10221106	296	1674.7927121343
546	10279797	297	1683.8087722566
546	10346100	298	1693.1381361866
546	10412746	299	1695.8630457269
546	10482065	300	1697.5894914176
545	9345519	283	2414.8502492411
545	9415500	284	2414.8502492411
545	9487337	285	2411.7543621832
545	9563131	286	2407.0347260807
545	9633324	287	2401.9735359403
545	9709197	288	2395.4627463716
545	9778848	289	2387.6348786533
545	9844831	290	2378.4914734778
545	9904046	291	2368.7123857766
545	9964581	292	2358.924030802
545	10027587	293	2349.1197761695
545	10087749	294	2339.7973724859
545	10156409	295	2334.2436543783
545	10221106	296	2339.1928477915
545	10279797	297	2349.8204180847
545	10346100	298	2360.1654001392
545	10412746	299	2373.641381238
545	10482065	300	2387.4564314937
554	9709197	288	4.0702125860217
554	9778848	289	5.6007790287442
554	9844831	290	6.4322936906201
554	9904046	291	8.1203151038995
554	9964581	292	8.2470833883172
554	10027587	293	2.076806474249
554	10087749	294	1.7360668761892
554	10156409	295	2.2334962217182
554	10221106	296	2.2009997177895
554	10279797	297	1.7693960082878
554	10346100	298	1.9399011315011
554	10412746	299	2.3133397386962
554	10482065	300	1.8847100106289
553	9709197	288	1.8714986755815
553	9778848	289	2.1055114513705
553	9844831	290	1.9761356175411
553	9904046	291	2.1441741232644
553	9964581	292	1.8460129410693
553	10027587	293	0.01202801330248
553	10087749	294	-0.087046954864636
553	10156409	295	0.059504628484136
553	10221106	296	0.048202806522605
553	10279797	297	-0.077830457291567
553	10346100	298	-0.026250096987932
553	10412746	299	0.082298331493512
553	10482065	300	-0.043785889046267
552	9633324	287	4.019737268876
552	9709197	288	5.8912359444575
552	9778848	289	7.996747395828
552	9844831	290	9.9728830133692
552	9904046	291	12.117057136634
552	9964581	292	13.963070077703
552	10027587	293	13.975098091005
552	10087749	294	13.888051136141
552	10156409	295	13.947555764625
552	10221106	296	13.995758571147
552	10279797	297	13.917928113856
552	10346100	298	13.891678016868
552	10412746	299	13.973976348361
552	10482065	300	13.930190459315
551	9563131	286	1578.4546366762
551	9633324	287	1578.4546366762
551	9709197	288	1579.5377001492
551	9778848	289	1581.423493946
551	9844831	290	1586.4687040551
551	9904046	291	1592.9124956205
551	9964581	292	1600.8985820012
551	10027587	293	1610.2992483638
551	10087749	294	1620.2061476754
551	10156409	295	1630.1109080417
551	10221106	296	1640.0282778675
551	10279797	297	1650.3409885233
551	10346100	298	1662.591088634
551	10412746	299	1674.5477327453
551	10482065	300	1683.552645593
550	9563131	286	2414.865951389
550	9633324	287	2414.865951389
550	9709197	288	2411.9163902046
550	9778848	289	2407.2902331047
550	9844831	290	2402.3090916057
550	9904046	291	2395.947129095
550	9964581	292	2388.0624572139
550	10027587	293	2378.7811689579
550	10087749	294	2369.0000763549
550	10156409	295	2359.2210955337
550	10221106	296	2349.4296653802
550	10279797	297	2340.0417810021
550	10346100	298	2334.3053458774
550	10412746	299	2338.889490335
550	10482065	300	2349.5364088258
565	9904046	291	4.1929421916268
565	9964581	292	4.9952903627684
565	10027587	293	5.8892107173673
565	10087749	294	6.8438446167788
565	10156409	295	8.0585657827734
565	10221106	296	4.0674810092823
565	10279797	297	2.0245834786145
565	10346100	298	2.2606431824085
565	10412746	299	1.982048320554
565	10482065	300	1.847157421321
564	9904046	291	1.9838184957369
564	9964581	292	1.8722308088909
564	10027587	293	1.8439105376694
564	10087749	294	1.8409201143053
564	10156409	295	1.9028807467036
564	10221106	296	0.60923520933041
564	10279797	297	-0.00093275353079747
564	10346100	298	0.067208600770682
564	10412746	299	-0.01516603966942
564	10482065	300	-0.053883195628877
563	9844831	290	3.8388518026201
563	9904046	291	5.8226702983571
563	9964581	292	7.694901107248
563	10027587	293	9.5388116449174
563	10087749	294	11.379731759223
563	10156409	295	13.282612505926
563	10221106	296	13.891847715257
563	10279797	297	13.890914961726
563	10346100	298	13.958123562497
563	10412746	299	13.942957522827
563	10482065	300	13.889074327198
562	9778848	289	1578.4501214568
562	9844831	290	1578.4501214568
562	9904046	291	1579.5038686898
562	9964581	292	1581.2339854557
562	10027587	293	1586.0843246905
562	10087749	294	1592.2608845904
562	10156409	295	1599.7766582156
562	10221106	296	1608.6011314141
562	10279797	297	1618.4546667794
562	10346100	298	1628.3745841663
562	10412746	299	1638.3006559843
562	10482065	300	1648.4003381785
561	9778848	289	2414.8782479123
561	9844831	290	2414.8782479123
561	9904046	291	2412.0085251181
561	9964581	292	2407.4773350458
561	10027587	293	2402.6885897759
561	10087749	294	2396.5904653833
561	10156409	295	2389.1701338032
561	10221106	296	2380.4577216933
561	10279797	297	2370.7293153725
561	10346100	298	2360.935370009
561	10412746	299	2351.1353483681
561	10482065	300	2341.5577297515
570	10087749	294	4.0238022827422
570	10156409	295	5.3240284088958
570	10221106	296	6.0716942638026
570	10279797	297	6.996266194297
570	10346100	298	8.3020874001692
570	10412746	299	3.0873597570208
570	10482065	300	2.2562357133232
569	10087749	294	1.8011175345886
569	10156409	295	1.9695445762528
569	10221106	296	1.8577861681115
569	10279797	297	1.840886382726
569	10346100	298	1.9245047028037
569	10412746	299	0.31560659859574
569	10482065	300	0.065352965763305
568	10027587	293	4.1988672093417
568	10087749	294	5.9999847439303
568	10156409	295	7.9695293201831
568	10221106	296	9.8273154882946
568	10279797	297	11.668201871021
568	10346100	298	13.592706573824
568	10412746	299	13.90831317242
568	10482065	300	13.973666138183
567	9964581	292	1578.4503983269
567	10027587	293	1578.4503983269
567	10087749	294	1579.5873470968
567	10156409	295	1581.6114479871
567	10221106	296	1586.6332778865
567	10279797	297	1593.0465930086
567	10346100	298	1600.7628815994
567	10412746	299	1609.8313500239
567	10482065	300	1619.7386781415
566	9964581	292	2414.8774938987
566	10027587	293	2414.8774938987
566	10087749	294	2411.7811841763
566	10156409	295	2407.1046658731
566	10221106	296	2402.1466076813
566	10279797	297	2395.8147345965
566	10346100	298	2388.1964343707
566	10412746	299	2379.2431255053
566	10482065	300	2369.4616095402
575	10279797	297	4.1052569192997
575	10346100	298	5.2853638361616
575	10412746	299	6.7893206317926
575	10482065	300	6.9409430754397
574	10279797	297	1.8603028618451
574	10346100	298	1.9555933920806
574	10412746	299	2.1053005864355
574	10482065	300	1.7892224123236
573	10221106	296	4.1315341364683
573	10279797	297	5.9918369983134
573	10346100	298	7.947430390394
573	10412746	299	10.05273097683
573	10482065	300	11.841953389153
572	10156409	295	1578.4660588931
572	10221106	296	1578.4660588931
572	10279797	297	1579.5641769432
572	10346100	298	1581.5500021204
572	10412746	299	1586.5911606317
572	10482065	300	1593.0457936423
571	10156409	295	2414.8348446911
571	10221106	296	2414.8348446911
571	10279797	297	2411.8442846215
571	10346100	298	2407.1653314445
571	10412746	299	2402.1881900934
571	10482065	300	2395.8155238112
580	10482065	300	4.6903570008639
579	10482065	300	2.2240633611637
578	10412746	299	3.8684168658379
578	10482065	300	6.0924802270016
577	10346100	298	1578.446638328
577	10412746	299	1578.446638328
577	10482065	300	1579.5005191956
576	10346100	298	2414.887733691
576	10412746	299	2414.887733691
576	10482065	300	2412.0176469652

