version 2
run SCRLE-0-20200623-01:35:40-6236
attr configname SCRLE
attr datetime 20200623-01:35:40
attr experiment SCRLE
attr inifile omnetpp.ini
attr iterationvars ""
attr iterationvarsf ""
attr measurement ""
attr network ned.Network
attr processid 6236
attr repetition 0
attr replication #0
attr resultdir results
attr runnumber 0
attr seedset 0
param **.**.applType "\"SCRLE\""
param *.V[*].appl.speed 22mps
param *.V[*].appl.plist_Interval 0.5s
param *.V[*].appl.beacon_Interval 1s
param *.V[*].appl.message_Lost 0
param *.playgroundSizeX 25000m
param *.playgroundSizeY 25000m
param *.playgroundSizeZ 50m
param *.annotations.draw true
param *.obstacles.obstacles "xmldoc(\"sumo/config.xml\", \"//AnalogueModel[@type='SimpleObstacleShadowing']/obstacles\")"
param Network.manager.updateInterval 1s
param Network.manager.host "\"localhost\""
param Network.manager.port 9999
param Network.manager.moduleType "\"ned.VNode\""
param Network.manager.moduleName "\"V\""
param Network.manager.moduleDisplayString "\"\""
param Network.manager.autoShutdown true
param Network.manager.margin 25
param Network.manager.launchConfig "xmldoc(\"sumo/erlangen.launchd.xml\")"
param *.connectionManager.sendDirect true
param *.connectionManager.maxInterfDist 2600m
param *.connectionManager.drawMaxIntfDist false
param *.**.nic.mac1609_4.useServiceChannel false
param *.**.nic.mac1609_4.txPower 20mW
param *.**.nic.mac1609_4.bitrate 6Mbps
param *.**.nic.phy80211p.minPowerLevel -110dBm
param *.**.nic.phy80211p.useNoiseFloor true
param *.**.nic.phy80211p.noiseFloor -98dBm
param *.**.nic.phy80211p.decider "xmldoc(\"sumo/config.xml\")"
param *.**.nic.phy80211p.analogueModels "xmldoc(\"sumo/config.xml\")"
param *.**.nic.phy80211p.usePropagationDelay true
param *.**.nic.phy80211p.antenna "xmldoc(\"sumo/antenna.xml\", \"/root/Antenna[@id='monopole']\")"
param Network.numCA 1
param Network.numRSU 1
param Network.numV 0
param **.applType "\"VAppl\""
param **.appl.headerLength "18400 bit"
param Network.CA[*].appl.InitialWait 0
param Network.CA[*].appl.CRLsize 1000
param Network.CA[*].appl.EnableShuffle true
param Network.CA[*].appl.NoSegments 20
param Network.CA[*].appl.Pseudonym_lifeTime 120s
param Network.RSU[*].appl.beacon_Interval 1s
param Network.RSU[*].appl.CRL_Interval 20s
param Network.RSU[*].appl.I2V_tho 0s
param Network.RSU[*].appl.I2V_EnableMultiChannel false
param Network.V[*].appl.speed 22mps
param Network.V[*].appl.beacon_Interval 4s
param Network.V[*].appl.V2V_tho 0s
param Network.V[*].appl.V2V_Wait_Beacon 0.03s
param Network.V[*].appl.V2V_EnableMultiChannel false
param Network.V[*].appl.V2V_Wait_CRL 0.1s
param Network.V[*].appl.MagicCarsRatio 0
param Network.V[*].appl.MagicReqTime intuniform(0,60)
param Network.V[*].appl.CRLrecons false
param Network.V[*].appl.CompromisedEnable false
param Network.V[*].appl.CompromisedMsgSendTime 0s
param Network.CA[0].mobility.x 1100
param Network.CA[0].mobility.y 50
param Network.CA[0].mobility.z 0
param Network.RSU[0].mobility.x 2000
param Network.RSU[1].mobility.x 860
param Network.RSU[2].mobility.x 1360
param Network.RSU[3].mobility.x 1860
param Network.RSU[*].mobility.y 2000
param Network.RSU[*].mobility.z 3
param *.V[*].veinsmobility.x 0
param *.V[*].veinsmobility.y 0
param *.V[*].veinsmobility.z 0
param *.V[*].veinsmobility.setHostSpeed false

vector 0 Network.V[0].veinsmobility posx ETV
vector 1 Network.V[0].veinsmobility posy ETV
vector 2 Network.V[0].veinsmobility speed ETV
vector 3 Network.V[0].veinsmobility acceleration ETV
vector 4 Network.V[0].veinsmobility co2emission ETV
vector 5 Network.V[1].veinsmobility posx ETV
vector 6 Network.V[1].veinsmobility posy ETV
vector 7 Network.V[1].veinsmobility speed ETV
vector 8 Network.V[1].veinsmobility acceleration ETV
vector 9 Network.V[1].veinsmobility co2emission ETV
vector 10 Network.V[2].veinsmobility posx ETV
vector 11 Network.V[2].veinsmobility posy ETV
vector 12 Network.V[2].veinsmobility speed ETV
vector 13 Network.V[0].appl "No of CRL Pieces" ETV
vector 14 Network.V[2].appl "No of CRL Pieces" ETV
vector 15 Network.V[2].veinsmobility acceleration ETV
vector 16 Network.V[2].veinsmobility co2emission ETV
vector 17 Network.V[1].appl "No of CRL Pieces" ETV
vector 18 Network.V[3].veinsmobility posx ETV
vector 19 Network.V[3].veinsmobility posy ETV
vector 20 Network.V[3].veinsmobility speed ETV
vector 21 Network.V[3].appl "No of CRL Pieces" ETV
vector 22 Network.V[3].veinsmobility acceleration ETV
vector 23 Network.V[3].veinsmobility co2emission ETV
vector 24 Network.V[4].veinsmobility posx ETV
vector 25 Network.V[4].veinsmobility posy ETV
vector 26 Network.V[4].veinsmobility speed ETV
vector 27 Network.V[4].appl "No of CRL Pieces" ETV
vector 28 Network.V[4].veinsmobility acceleration ETV
vector 29 Network.V[4].veinsmobility co2emission ETV
vector 30 Network.V[5].veinsmobility posx ETV
vector 31 Network.V[5].veinsmobility posy ETV
vector 32 Network.V[5].appl "No of CRL Pieces" ETV
vector 33 Network.V[5].veinsmobility speed ETV
vector 34 Network.V[5].veinsmobility acceleration ETV
vector 35 Network.V[5].veinsmobility co2emission ETV
vector 36 Network.V[6].veinsmobility posx ETV
vector 37 Network.V[6].veinsmobility posy ETV
vector 38 Network.V[6].appl "No of CRL Pieces" ETV
vector 39 Network.V[6].veinsmobility speed ETV
vector 40 Network.V[6].veinsmobility acceleration ETV
vector 41 Network.V[6].veinsmobility co2emission ETV
vector 42 Network.V[7].veinsmobility posx ETV
vector 43 Network.V[7].veinsmobility posy ETV
vector 44 Network.V[7].veinsmobility speed ETV
vector 45 Network.V[7].veinsmobility acceleration ETV
vector 46 Network.V[7].veinsmobility co2emission ETV
vector 47 Network.V[8].veinsmobility posx ETV
vector 48 Network.V[8].veinsmobility posy ETV
vector 49 Network.V[7].appl "No of CRL Pieces" ETV
vector 50 Network.V[8].appl "No of CRL Pieces" ETV
vector 51 Network.V[8].veinsmobility speed ETV
vector 52 Network.V[8].veinsmobility acceleration ETV
vector 53 Network.V[8].veinsmobility co2emission ETV
vector 54 Network.V[9].veinsmobility posx ETV
vector 55 Network.V[9].veinsmobility posy ETV
vector 56 Network.V[9].veinsmobility speed ETV
vector 57 Network.V[9].appl "No of CRL Pieces" ETV
vector 58 Network.V[9].veinsmobility acceleration ETV
vector 59 Network.V[9].veinsmobility co2emission ETV
vector 60 Network.V[10].veinsmobility posx ETV
vector 61 Network.V[10].veinsmobility posy ETV
vector 62 Network.V[10].veinsmobility speed ETV
vector 63 Network.V[10].appl "No of CRL Pieces" ETV
vector 64 Network.V[10].veinsmobility acceleration ETV
vector 65 Network.V[10].veinsmobility co2emission ETV
vector 66 Network.V[11].veinsmobility posx ETV
vector 67 Network.V[11].veinsmobility posy ETV
vector 68 Network.V[11].veinsmobility speed ETV
vector 69 Network.V[11].veinsmobility acceleration ETV
vector 70 Network.V[11].veinsmobility co2emission ETV
vector 71 Network.V[12].veinsmobility posx ETV
vector 72 Network.V[12].veinsmobility posy ETV
vector 73 Network.V[12].veinsmobility speed ETV
vector 74 Network.V[12].veinsmobility acceleration ETV
vector 75 Network.V[12].veinsmobility co2emission ETV
vector 76 Network.V[11].appl "No of CRL Pieces" ETV
vector 77 Network.V[13].veinsmobility posx ETV
vector 78 Network.V[13].veinsmobility posy ETV
vector 79 Network.V[13].appl "No of CRL Pieces" ETV
vector 80 Network.V[13].veinsmobility speed ETV
vector 81 Network.V[13].veinsmobility acceleration ETV
vector 82 Network.V[13].veinsmobility co2emission ETV
vector 83 Network.V[12].appl "No of CRL Pieces" ETV
vector 84 Network.V[14].veinsmobility posx ETV
vector 85 Network.V[14].veinsmobility posy ETV
vector 86 Network.V[14].appl "No of CRL Pieces" ETV
vector 87 Network.V[14].veinsmobility speed ETV
vector 88 Network.V[14].veinsmobility acceleration ETV
vector 89 Network.V[14].veinsmobility co2emission ETV
vector 90 Network.V[15].veinsmobility posx ETV
vector 91 Network.V[15].veinsmobility posy ETV
vector 92 Network.V[15].veinsmobility speed ETV
vector 93 Network.V[15].veinsmobility acceleration ETV
vector 94 Network.V[15].veinsmobility co2emission ETV
vector 95 Network.V[16].veinsmobility posx ETV
vector 96 Network.V[16].veinsmobility posy ETV
vector 97 Network.V[16].appl "No of CRL Pieces" ETV
vector 98 Network.V[16].veinsmobility speed ETV
vector 99 Network.V[16].veinsmobility acceleration ETV
vector 100 Network.V[16].veinsmobility co2emission ETV
vector 101 Network.V[15].appl "No of CRL Pieces" ETV
vector 102 Network.V[17].veinsmobility posx ETV
vector 103 Network.V[17].veinsmobility posy ETV
vector 104 Network.V[17].appl "No of CRL Pieces" ETV
vector 105 Network.V[17].veinsmobility speed ETV
vector 106 Network.V[17].veinsmobility acceleration ETV
vector 107 Network.V[17].veinsmobility co2emission ETV
vector 108 Network.V[18].veinsmobility posx ETV
vector 109 Network.V[18].veinsmobility posy ETV
vector 110 Network.V[18].veinsmobility speed ETV
vector 111 Network.V[18].appl "No of CRL Pieces" ETV
vector 112 Network.V[18].veinsmobility acceleration ETV
vector 113 Network.V[18].veinsmobility co2emission ETV
vector 114 Network.V[19].veinsmobility posx ETV
vector 115 Network.V[19].veinsmobility posy ETV
vector 116 Network.V[19].veinsmobility speed ETV
vector 117 Network.V[19].appl "No of CRL Pieces" ETV
vector 118 Network.V[19].veinsmobility acceleration ETV
vector 119 Network.V[19].veinsmobility co2emission ETV
vector 120 Network.V[20].veinsmobility posx ETV
vector 121 Network.V[20].veinsmobility posy ETV
vector 122 Network.V[20].veinsmobility speed ETV
vector 123 Network.V[20].appl "No of CRL Pieces" ETV
vector 124 Network.V[20].veinsmobility acceleration ETV
vector 125 Network.V[20].veinsmobility co2emission ETV
vector 126 Network.V[21].veinsmobility posx ETV
vector 127 Network.V[21].veinsmobility posy ETV
vector 128 Network.V[21].appl "No of CRL Pieces" ETV
vector 129 Network.V[21].veinsmobility speed ETV
vector 130 Network.V[21].veinsmobility acceleration ETV
vector 131 Network.V[21].veinsmobility co2emission ETV
vector 132 Network.V[22].veinsmobility posx ETV
vector 133 Network.V[22].veinsmobility posy ETV
vector 134 Network.V[22].appl "No of CRL Pieces" ETV
vector 135 Network.V[22].veinsmobility speed ETV
vector 136 Network.V[22].veinsmobility acceleration ETV
vector 137 Network.V[22].veinsmobility co2emission ETV
vector 138 Network.V[23].veinsmobility posx ETV
vector 139 Network.V[23].veinsmobility posy ETV
vector 140 Network.V[23].appl "No of CRL Pieces" ETV
vector 141 Network.V[23].veinsmobility speed ETV
vector 142 Network.V[23].veinsmobility acceleration ETV
vector 143 Network.V[23].veinsmobility co2emission ETV
vector 144 Network.V[24].veinsmobility posx ETV
vector 145 Network.V[24].veinsmobility posy ETV
vector 146 Network.V[24].appl "No of CRL Pieces" ETV
vector 147 Network.V[24].veinsmobility speed ETV
vector 148 Network.V[24].veinsmobility acceleration ETV
vector 149 Network.V[24].veinsmobility co2emission ETV
vector 150 Network.V[25].veinsmobility posx ETV
vector 151 Network.V[25].veinsmobility posy ETV
vector 152 Network.V[25].appl "No of CRL Pieces" ETV
vector 153 Network.V[25].veinsmobility speed ETV
vector 154 Network.V[25].veinsmobility acceleration ETV
vector 155 Network.V[25].veinsmobility co2emission ETV
vector 156 Network.V[26].veinsmobility posx ETV
vector 157 Network.V[26].veinsmobility posy ETV
vector 158 Network.V[26].veinsmobility speed ETV
vector 159 Network.V[26].appl "No of CRL Pieces" ETV
vector 160 Network.V[26].veinsmobility acceleration ETV
vector 161 Network.V[26].veinsmobility co2emission ETV
vector 162 Network.V[27].veinsmobility posx ETV
vector 163 Network.V[27].veinsmobility posy ETV
vector 164 Network.V[27].veinsmobility speed ETV
vector 165 Network.V[27].appl "No of CRL Pieces" ETV
vector 166 Network.V[27].veinsmobility acceleration ETV
vector 167 Network.V[27].veinsmobility co2emission ETV
vector 168 Network.V[28].veinsmobility posx ETV
vector 169 Network.V[28].veinsmobility posy ETV
vector 170 Network.V[28].veinsmobility speed ETV
vector 171 Network.V[28].appl "No of CRL Pieces" ETV
vector 172 Network.V[28].veinsmobility acceleration ETV
vector 173 Network.V[28].veinsmobility co2emission ETV
vector 174 Network.V[29].veinsmobility posx ETV
vector 175 Network.V[29].veinsmobility posy ETV
vector 176 Network.V[29].appl "No of CRL Pieces" ETV
vector 177 Network.V[29].veinsmobility speed ETV
vector 178 Network.V[29].veinsmobility acceleration ETV
vector 179 Network.V[29].veinsmobility co2emission ETV
vector 180 Network.V[30].veinsmobility posx ETV
vector 181 Network.V[30].veinsmobility posy ETV
vector 182 Network.V[30].veinsmobility speed ETV
vector 183 Network.V[30].appl "No of CRL Pieces" ETV
vector 184 Network.V[30].veinsmobility acceleration ETV
vector 185 Network.V[30].veinsmobility co2emission ETV
vector 186 Network.V[31].veinsmobility posx ETV
vector 187 Network.V[31].veinsmobility posy ETV
vector 188 Network.V[31].veinsmobility speed ETV
vector 189 Network.V[31].appl "No of CRL Pieces" ETV
vector 190 Network.V[31].veinsmobility acceleration ETV
vector 191 Network.V[31].veinsmobility co2emission ETV
vector 192 Network.V[32].veinsmobility posx ETV
vector 193 Network.V[32].veinsmobility posy ETV
vector 194 Network.V[32].veinsmobility speed ETV
vector 195 Network.V[32].appl "No of CRL Pieces" ETV
vector 196 Network.V[32].veinsmobility acceleration ETV
vector 197 Network.V[32].veinsmobility co2emission ETV
vector 198 Network.V[33].veinsmobility posx ETV
vector 199 Network.V[33].veinsmobility posy ETV
vector 200 Network.V[33].veinsmobility speed ETV
vector 201 Network.V[33].appl "No of CRL Pieces" ETV
vector 202 Network.V[33].veinsmobility acceleration ETV
vector 203 Network.V[33].veinsmobility co2emission ETV
vector 204 Network.V[34].veinsmobility posx ETV
vector 205 Network.V[34].veinsmobility posy ETV
vector 206 Network.V[34].veinsmobility speed ETV
vector 207 Network.V[34].appl "No of CRL Pieces" ETV
vector 208 Network.V[34].veinsmobility acceleration ETV
vector 209 Network.V[34].veinsmobility co2emission ETV
vector 210 Network.V[35].veinsmobility posx ETV
vector 211 Network.V[35].veinsmobility posy ETV
vector 212 Network.V[35].veinsmobility speed ETV
vector 213 Network.V[35].appl "No of CRL Pieces" ETV
vector 214 Network.V[35].veinsmobility acceleration ETV
vector 215 Network.V[35].veinsmobility co2emission ETV
vector 216 Network.V[36].veinsmobility posx ETV
vector 217 Network.V[36].veinsmobility posy ETV
vector 218 Network.V[36].veinsmobility speed ETV
vector 219 Network.V[36].appl "No of CRL Pieces" ETV
vector 220 Network.V[36].veinsmobility acceleration ETV
vector 221 Network.V[36].veinsmobility co2emission ETV
vector 222 Network.V[37].veinsmobility posx ETV
vector 223 Network.V[37].veinsmobility posy ETV
vector 224 Network.V[37].veinsmobility speed ETV
vector 225 Network.V[37].appl "No of CRL Pieces" ETV
vector 226 Network.V[37].veinsmobility acceleration ETV
vector 227 Network.V[37].veinsmobility co2emission ETV
vector 228 Network.V[38].veinsmobility posx ETV
vector 229 Network.V[38].veinsmobility posy ETV
vector 230 Network.V[38].appl "No of CRL Pieces" ETV
vector 231 Network.V[38].veinsmobility speed ETV
vector 232 Network.V[38].veinsmobility acceleration ETV
vector 233 Network.V[38].veinsmobility co2emission ETV
vector 234 Network.V[39].veinsmobility posx ETV
vector 235 Network.V[39].veinsmobility posy ETV
vector 236 Network.V[39].appl "No of CRL Pieces" ETV
vector 237 Network.V[39].veinsmobility speed ETV
vector 238 Network.V[39].veinsmobility acceleration ETV
vector 239 Network.V[39].veinsmobility co2emission ETV
vector 240 Network.V[40].veinsmobility posx ETV
vector 241 Network.V[40].veinsmobility posy ETV
vector 242 Network.V[40].veinsmobility speed ETV
vector 243 Network.V[40].veinsmobility acceleration ETV
vector 244 Network.V[40].veinsmobility co2emission ETV
vector 245 Network.V[41].veinsmobility posx ETV
vector 246 Network.V[41].veinsmobility posy ETV
vector 247 Network.V[41].veinsmobility speed ETV
vector 248 Network.V[41].veinsmobility acceleration ETV
vector 249 Network.V[41].veinsmobility co2emission ETV
vector 250 Network.V[42].veinsmobility posx ETV
vector 251 Network.V[42].veinsmobility posy ETV
vector 252 Network.V[42].veinsmobility speed ETV
vector 253 Network.V[42].veinsmobility acceleration ETV
vector 254 Network.V[42].veinsmobility co2emission ETV
vector 255 Network.V[43].veinsmobility posx ETV
vector 256 Network.V[43].veinsmobility posy ETV
vector 257 Network.V[43].appl "No of CRL Pieces" ETV
vector 258 Network.V[43].veinsmobility speed ETV
vector 259 Network.V[43].veinsmobility acceleration ETV
vector 260 Network.V[43].veinsmobility co2emission ETV
vector 261 Network.V[44].veinsmobility posx ETV
vector 262 Network.V[44].veinsmobility posy ETV
vector 263 Network.V[44].veinsmobility speed ETV
vector 264 Network.V[44].appl "No of CRL Pieces" ETV
vector 265 Network.V[44].veinsmobility acceleration ETV
vector 266 Network.V[44].veinsmobility co2emission ETV
vector 267 Network.V[45].veinsmobility posx ETV
vector 268 Network.V[45].veinsmobility posy ETV
vector 269 Network.V[45].veinsmobility speed ETV
vector 270 Network.V[45].appl "No of CRL Pieces" ETV
vector 271 Network.V[45].veinsmobility acceleration ETV
vector 272 Network.V[45].veinsmobility co2emission ETV
vector 273 Network.V[46].veinsmobility posx ETV
vector 274 Network.V[46].veinsmobility posy ETV
vector 275 Network.V[46].veinsmobility speed ETV
vector 276 Network.V[46].appl "No of CRL Pieces" ETV
vector 277 Network.V[46].veinsmobility acceleration ETV
vector 278 Network.V[46].veinsmobility co2emission ETV
vector 279 Network.V[47].veinsmobility posx ETV
vector 280 Network.V[47].veinsmobility posy ETV
vector 281 Network.V[47].veinsmobility speed ETV
vector 282 Network.V[47].appl "No of CRL Pieces" ETV
vector 283 Network.V[47].veinsmobility acceleration ETV
vector 284 Network.V[47].veinsmobility co2emission ETV
vector 285 Network.V[48].veinsmobility posx ETV
vector 286 Network.V[48].veinsmobility posy ETV
vector 287 Network.V[48].veinsmobility speed ETV
vector 288 Network.V[48].appl "No of CRL Pieces" ETV
vector 289 Network.V[48].veinsmobility acceleration ETV
vector 290 Network.V[48].veinsmobility co2emission ETV
vector 291 Network.V[49].veinsmobility posx ETV
vector 292 Network.V[49].veinsmobility posy ETV
vector 293 Network.V[49].veinsmobility speed ETV
vector 294 Network.V[49].appl "No of CRL Pieces" ETV
vector 295 Network.V[49].veinsmobility acceleration ETV
vector 296 Network.V[49].veinsmobility co2emission ETV
vector 297 Network.V[50].veinsmobility posx ETV
vector 298 Network.V[50].veinsmobility posy ETV
vector 299 Network.V[50].appl "No of CRL Pieces" ETV
vector 300 Network.V[50].veinsmobility speed ETV
vector 301 Network.V[50].veinsmobility acceleration ETV
vector 302 Network.V[50].veinsmobility co2emission ETV
vector 303 Network.V[51].veinsmobility posx ETV
vector 304 Network.V[51].veinsmobility posy ETV
vector 305 Network.V[51].veinsmobility speed ETV
vector 306 Network.V[51].appl "No of CRL Pieces" ETV
vector 307 Network.V[51].veinsmobility acceleration ETV
vector 308 Network.V[51].veinsmobility co2emission ETV
vector 309 Network.V[52].veinsmobility posx ETV
vector 310 Network.V[52].veinsmobility posy ETV
vector 311 Network.V[52].appl "No of CRL Pieces" ETV
vector 312 Network.V[52].veinsmobility speed ETV
vector 313 Network.V[52].veinsmobility acceleration ETV
vector 314 Network.V[52].veinsmobility co2emission ETV
vector 315 Network.V[53].veinsmobility posx ETV
vector 316 Network.V[53].veinsmobility posy ETV
vector 317 Network.V[53].appl "No of CRL Pieces" ETV
vector 318 Network.V[53].veinsmobility speed ETV
vector 319 Network.V[53].veinsmobility acceleration ETV
vector 320 Network.V[53].veinsmobility co2emission ETV
vector 321 Network.V[54].veinsmobility posx ETV
vector 322 Network.V[54].veinsmobility posy ETV
vector 323 Network.V[54].veinsmobility speed ETV
vector 324 Network.V[54].veinsmobility acceleration ETV
vector 325 Network.V[54].veinsmobility co2emission ETV
vector 326 Network.V[55].veinsmobility posx ETV
vector 327 Network.V[55].veinsmobility posy ETV
vector 328 Network.V[55].appl "No of CRL Pieces" ETV
vector 329 Network.V[55].veinsmobility speed ETV
vector 330 Network.V[55].veinsmobility acceleration ETV
vector 331 Network.V[55].veinsmobility co2emission ETV
vector 332 Network.V[56].veinsmobility posx ETV
vector 333 Network.V[56].veinsmobility posy ETV
vector 334 Network.V[56].veinsmobility speed ETV
vector 335 Network.V[56].appl "No of CRL Pieces" ETV
vector 336 Network.V[56].veinsmobility acceleration ETV
vector 337 Network.V[56].veinsmobility co2emission ETV
vector 338 Network.V[57].veinsmobility posx ETV
vector 339 Network.V[57].veinsmobility posy ETV
vector 340 Network.V[57].veinsmobility speed ETV
vector 341 Network.V[57].appl "No of CRL Pieces" ETV
vector 342 Network.V[57].veinsmobility acceleration ETV
vector 343 Network.V[57].veinsmobility co2emission ETV
vector 344 Network.V[58].veinsmobility posx ETV
vector 345 Network.V[58].veinsmobility posy ETV
vector 346 Network.V[58].veinsmobility speed ETV
vector 347 Network.V[58].veinsmobility acceleration ETV
vector 348 Network.V[58].veinsmobility co2emission ETV
vector 349 Network.V[59].veinsmobility posx ETV
vector 350 Network.V[59].veinsmobility posy ETV
vector 351 Network.V[59].veinsmobility speed ETV
vector 352 Network.V[59].appl "No of CRL Pieces" ETV
vector 353 Network.V[59].veinsmobility acceleration ETV
vector 354 Network.V[59].veinsmobility co2emission ETV
vector 355 Network.V[60].veinsmobility posx ETV
vector 356 Network.V[60].veinsmobility posy ETV
vector 357 Network.V[60].appl "No of CRL Pieces" ETV
vector 358 Network.V[60].veinsmobility speed ETV
vector 359 Network.V[60].veinsmobility acceleration ETV
vector 360 Network.V[60].veinsmobility co2emission ETV
vector 361 Network.V[61].veinsmobility posx ETV
vector 362 Network.V[61].veinsmobility posy ETV
vector 363 Network.V[61].appl "No of CRL Pieces" ETV
vector 364 Network.V[61].veinsmobility speed ETV
vector 365 Network.V[61].veinsmobility acceleration ETV
vector 366 Network.V[61].veinsmobility co2emission ETV
vector 367 Network.V[62].veinsmobility posx ETV
vector 368 Network.V[62].veinsmobility posy ETV
vector 369 Network.V[62].veinsmobility speed ETV
vector 370 Network.V[62].appl "No of CRL Pieces" ETV
vector 371 Network.V[40].appl "No of CRL Pieces" ETV
vector 372 Network.V[41].appl "No of CRL Pieces" ETV
vector 373 Network.V[42].appl "No of CRL Pieces" ETV
vector 374 Network.V[62].veinsmobility acceleration ETV
vector 375 Network.V[62].veinsmobility co2emission ETV
vector 376 Network.V[63].veinsmobility posx ETV
vector 377 Network.V[63].veinsmobility posy ETV
vector 378 Network.V[63].veinsmobility speed ETV
vector 379 Network.V[63].appl "No of CRL Pieces" ETV
vector 380 Network.V[63].veinsmobility acceleration ETV
vector 381 Network.V[63].veinsmobility co2emission ETV
vector 382 Network.V[64].veinsmobility posx ETV
vector 383 Network.V[64].veinsmobility posy ETV
vector 384 Network.V[64].veinsmobility speed ETV
vector 385 Network.V[64].appl "No of CRL Pieces" ETV
vector 386 Network.V[64].veinsmobility acceleration ETV
vector 387 Network.V[64].veinsmobility co2emission ETV
vector 388 Network.V[65].veinsmobility posx ETV
vector 389 Network.V[65].veinsmobility posy ETV
vector 390 Network.V[65].appl "No of CRL Pieces" ETV
vector 391 Network.V[65].veinsmobility speed ETV
vector 392 Network.V[65].veinsmobility acceleration ETV
vector 393 Network.V[65].veinsmobility co2emission ETV
vector 394 Network.V[66].veinsmobility posx ETV
vector 395 Network.V[66].veinsmobility posy ETV
vector 396 Network.V[66].veinsmobility speed ETV
vector 397 Network.V[66].appl "No of CRL Pieces" ETV
vector 398 Network.V[66].veinsmobility acceleration ETV
vector 399 Network.V[66].veinsmobility co2emission ETV
vector 400 Network.V[67].veinsmobility posx ETV
vector 401 Network.V[67].veinsmobility posy ETV
vector 402 Network.V[67].veinsmobility speed ETV
vector 403 Network.V[67].appl "No of CRL Pieces" ETV
vector 404 Network.V[67].veinsmobility acceleration ETV
vector 405 Network.V[67].veinsmobility co2emission ETV
vector 406 Network.V[68].veinsmobility posx ETV
vector 407 Network.V[68].veinsmobility posy ETV
vector 408 Network.V[68].veinsmobility speed ETV
vector 409 Network.V[68].appl "No of CRL Pieces" ETV
vector 410 Network.V[68].veinsmobility acceleration ETV
vector 411 Network.V[68].veinsmobility co2emission ETV
vector 412 Network.V[69].veinsmobility posx ETV
vector 413 Network.V[69].veinsmobility posy ETV
vector 414 Network.V[69].veinsmobility speed ETV
vector 415 Network.V[69].appl "No of CRL Pieces" ETV
vector 416 Network.V[69].veinsmobility acceleration ETV
vector 417 Network.V[69].veinsmobility co2emission ETV
vector 418 Network.V[70].veinsmobility posx ETV
vector 419 Network.V[70].veinsmobility posy ETV
vector 420 Network.V[70].appl "No of CRL Pieces" ETV
vector 421 Network.V[70].veinsmobility speed ETV
vector 422 Network.V[70].veinsmobility acceleration ETV
vector 423 Network.V[70].veinsmobility co2emission ETV
vector 424 Network.V[71].veinsmobility posx ETV
vector 425 Network.V[71].veinsmobility posy ETV
vector 426 Network.V[71].appl "No of CRL Pieces" ETV
vector 427 Network.V[71].veinsmobility speed ETV
vector 428 Network.V[71].veinsmobility acceleration ETV
vector 429 Network.V[71].veinsmobility co2emission ETV
vector 430 Network.V[72].veinsmobility posx ETV
vector 431 Network.V[72].veinsmobility posy ETV
vector 432 Network.V[72].veinsmobility speed ETV
vector 433 Network.V[72].appl "No of CRL Pieces" ETV
vector 434 Network.V[72].veinsmobility acceleration ETV
vector 435 Network.V[72].veinsmobility co2emission ETV
vector 436 Network.V[73].veinsmobility posx ETV
vector 437 Network.V[73].veinsmobility posy ETV
vector 438 Network.V[73].appl "No of CRL Pieces" ETV
vector 439 Network.V[73].veinsmobility speed ETV
vector 440 Network.V[73].veinsmobility acceleration ETV
vector 441 Network.V[73].veinsmobility co2emission ETV
vector 442 Network.V[74].veinsmobility posx ETV
vector 443 Network.V[74].veinsmobility posy ETV
vector 444 Network.V[74].appl "No of CRL Pieces" ETV
vector 445 Network.V[74].veinsmobility speed ETV
vector 446 Network.V[74].veinsmobility acceleration ETV
vector 447 Network.V[74].veinsmobility co2emission ETV
vector 448 Network.V[54].appl "No of CRL Pieces" ETV
vector 449 Network.V[75].veinsmobility posx ETV
vector 450 Network.V[75].veinsmobility posy ETV
vector 451 Network.V[75].veinsmobility speed ETV
vector 452 Network.V[75].appl "No of CRL Pieces" ETV
vector 453 Network.V[75].veinsmobility acceleration ETV
vector 454 Network.V[75].veinsmobility co2emission ETV
vector 455 Network.V[76].veinsmobility posx ETV
vector 456 Network.V[76].veinsmobility posy ETV
vector 457 Network.V[76].appl "No of CRL Pieces" ETV
vector 458 Network.V[76].veinsmobility speed ETV
vector 459 Network.V[76].veinsmobility acceleration ETV
vector 460 Network.V[76].veinsmobility co2emission ETV
vector 461 Network.V[77].veinsmobility posx ETV
vector 462 Network.V[77].veinsmobility posy ETV
vector 463 Network.V[77].veinsmobility speed ETV
vector 464 Network.V[77].veinsmobility acceleration ETV
vector 465 Network.V[77].veinsmobility co2emission ETV
vector 466 Network.V[78].veinsmobility posx ETV
vector 467 Network.V[78].veinsmobility posy ETV
vector 468 Network.V[78].appl "No of CRL Pieces" ETV
vector 469 Network.V[78].veinsmobility speed ETV
vector 470 Network.V[78].veinsmobility acceleration ETV
vector 471 Network.V[78].veinsmobility co2emission ETV
vector 472 Network.V[79].veinsmobility posx ETV
vector 473 Network.V[79].veinsmobility posy ETV
vector 474 Network.V[79].veinsmobility speed ETV
vector 475 Network.V[79].appl "No of CRL Pieces" ETV
vector 476 Network.V[79].veinsmobility acceleration ETV
vector 477 Network.V[79].veinsmobility co2emission ETV
vector 478 Network.V[80].veinsmobility posx ETV
vector 479 Network.V[80].veinsmobility posy ETV
vector 480 Network.V[80].veinsmobility speed ETV
vector 481 Network.V[80].veinsmobility acceleration ETV
vector 482 Network.V[80].veinsmobility co2emission ETV
vector 483 Network.V[81].veinsmobility posx ETV
vector 484 Network.V[81].veinsmobility posy ETV
vector 485 Network.V[81].veinsmobility speed ETV
vector 486 Network.V[81].veinsmobility acceleration ETV
vector 487 Network.V[81].veinsmobility co2emission ETV
vector 488 Network.V[82].veinsmobility posx ETV
vector 489 Network.V[82].veinsmobility posy ETV
vector 490 Network.V[82].veinsmobility speed ETV
vector 491 Network.V[82].appl "No of CRL Pieces" ETV
vector 492 Network.V[58].appl "No of CRL Pieces" ETV
vector 493 Network.V[82].veinsmobility acceleration ETV
vector 494 Network.V[82].veinsmobility co2emission ETV
vector 495 Network.V[83].veinsmobility posx ETV
vector 496 Network.V[83].veinsmobility posy ETV
vector 497 Network.V[83].veinsmobility speed ETV
vector 498 Network.V[83].appl "No of CRL Pieces" ETV
vector 499 Network.V[83].veinsmobility acceleration ETV
vector 500 Network.V[83].veinsmobility co2emission ETV
13	1518	8.484114200601	1
13	31473	28.839428823143	2
13	182013	56.653045734047	3
13	182115	56.656242734047	4
13	182217	56.659452734047	5
13	182319	56.662623734047	6
13	182421	56.665820734047	7
13	182523	56.669030734047	8
13	182627	56.672201734047	9
13	182729	56.675372734047	10
13	190551	57.649854537883	11
13	307314	68.448990520226	12
13	307501	68.455410520226	13
13	307689	68.461804520226	14
13	308255	68.481038520226	15
13	308444	68.487393520226	16
13	308538	68.490590520226	17
13	308632	68.493761520226	18
13	308727	68.496971520226	19
13	308956	68.503352520226	20
4	108	3	4.1962556146115
4	141	4	4.6765885426193
4	271	5	5.9822455727343
4	486	6	6.7469998477461
4	701	7	8.9023657158011
4	1061	8	3.651678681686
4	1876	9	1.6857621818206
4	2327	10	2.3276633668785
4	2841	11	2.0995306276608
4	3541	12	1.7923040941768
4	4179	13	2.0305681317735
4	4935	14	1.9844951865828
4	5895	15	2.2187318873595
4	6789	16	2.1416854339172
4	8085	17	1.8896148890835
4	9306	18	2.0499339673421
4	10527	19	0.973
4	12204	20	0.973
4	13796	21	3.236958348016
4	15389	22	7.0694109561587
4	17212	23	7.2974163894139
4	19078	24	8.7433911631671
4	20943	25	1.9831721788576
4	23667	26	2.116835898497
4	26099	27	1.9244585801898
4	28409	28	1.8775583559564
4	32358	29	1.9545657515643
4	35873	30	2.0931646705581
4	38871	31	2.2926746988581
4	42050	32	1.993865292131
4	45623	33	1.6968396252803
4	48776	34	2.4149847823944
4	52206	35	1.6983583398882
4	55493	36	1.9906198998388
4	58951	37	2.3442713071536
4	62551	38	1.7018725964397
4	66107	39	2.0993392475273
4	69840	40	1.9585122345881
4	74213	41	2.4691677522194
4	78154	42	1.9170802753567
4	82513	43	1.8345014514108
4	87499	44	2.0838538984303
4	91803	45	2.0539801513469
4	96494	46	2.0668686152862
4	101635	47	1.9813596940184
4	106390	48	2.1840996762636
4	112553	49	2.0987681125428
4	127354	50	1.8592856847688
4	137692	51	2.0145873760113
4	146503	52	2.0950692067684
4	153406	53	1.8080099866508
4	160221	54	1.9870007069688
4	167643	55	2.2415869227426
4	175263	56	2.0614496349521
4	186007	57	2.0646020593826
4	194087	58	1.8102089718445
4	202617	59	2.1453880261281
4	214504	60	1.9826536733129
4	223089	61	2.0673636130683
4	234298	62	2.0538817544551
4	245616	63	2.1528270365066
4	255604	64	2.0265038417738
4	268504	65	1.9764402783138
4	278613	66	2.2347131127692
4	289603	67	2.0405446651404
4	302283	68	1.6487905152147
4	314793	69	2.0126291187762
4	328520	70	2.0466796925005
4	344733	71	2.3433989621326
4	355276	72	0.973
4	358303	73	0.973
4	363974	74	4.8809554156367
4	367248	75	6.6811452761601
4	370545	76	8.1607584221603
4	376457	77	6.9480584672652
4	379974	78	1.6680322027993
4	383497	79	2.2170514259717
4	387279	80	2.1579993066844
4	395026	81	1.8393252185798
4	398742	82	2.1131063774542
4	402746	83	2.157506963768
4	410701	84	2.0867532276998
4	414700	85	1.9721338004887
4	418978	86	1.8000889448787
4	427325	87	2.0655927143501
4	431539	88	2.1236171019815
4	443004	89	1.8979343131076
4	447483	90	2.2156768175481
4	451949	91	2.1479163480387
4	456705	92	1.9028703189759
4	466531	93	1.9274090838955
4	471311	94	2.0077586487826
4	476386	95	2.0511097794732
4	486797	96	2.0576484682309
4	491786	97	2.2398922754829
4	497047	98	1.9069349143407
4	507540	99	1.9432214712872
4	512738	100	2.1439613436349
4	518210	101	1.8168896615362
4	526586	102	2.1233006114287
4	532011	103	2.1130242583451
4	538124	104	2.0088001748926
4	552033	105	1.9072621324086
4	557599	106	2.2140373373517
4	563436	107	2.1770614278808
4	572198	108	1.6473510828978
4	581256	109	2.1220983905492
4	587333	110	1.9751750017376
4	599076	111	2.0960799393481
4	605110	112	1.8831767790609
4	611447	113	2.2460956727086
4	623440	114	1.8324400030243
4	629754	115	2.3879104851153
4	639251	116	1.6666890233496
4	648870	117	2.1857539942143
4	655516	118	2.1120842252302
4	665672	119	2.1211551333534
4	672689	120	1.7936195303491
4	679715	121	2.2148160768082
4	687105	122	1.8619680915987
4	694650	123	2.0258853731746
4	702223	124	2.304380476416
4	710147	125	1.6887067812302
4	718250	126	2.0733073570021
4	726348	127	2.1023355462812
4	734973	128	2.0793892076523
4	747597	129	1.8544662206567
4	756133	130	2.4259796074968
4	768508	131	1.633853726441
4	777395	132	2.1557066895618
4	786192	133	2.0528665696243
4	795342	134	1.912038644498
4	810195	135	2.0057614883071
4	819272	136	2.2439569957465
4	828681	137	1.8440580280714
4	843353	138	2.231711462374
4	852798	139	1.9850053294315
4	862643	140	1.9980235595548
4	875235	141	2.0975280706569
4	885172	142	2.0729929956751
4	895499	143	1.9615701670856
4	908466	144	2.0809115709552
4	918837	145	1.8061360510748
4	929646	146	2.2506757699835
4	945578	147	1.8061733875953
4	956384	148	2.4266845615448
4	972390	149	2.0192126891949
4	989533	150	1.7642446806966
4	1000802	151	2.1464322636876
4	1015725	152	1.954085001403
4	1027460	153	2.1942935692296
4	1039261	154	1.721247569189
4	1051466	155	2.0240866259417
4	1066882	156	2.1690471500905
4	1080467	157	2.2978220226587
4	1096152	158	1.9699951794538
4	1108626	159	2.041236054439
4	1121072	160	2.1134871274209
4	1137239	161	1.9036851063429
4	1149984	162	2.1413264045017
4	1162749	163	1.8950788450201
4	1176078	164	2.1235722209708
4	1189399	165	2.0612404299833
4	1202754	166	1.8999094614842
4	1223208	167	2.0705621398081
4	1236952	168	1.9611367237514
4	1255907	169	2.2556808060981
4	1270108	170	1.9290670990496
4	1287775	171	2.1365950768377
4	1302006	172	1.9872740217513
4	1316652	173	2.009453645548
4	1334704	174	1.9884640791529
4	1351172	175	1.8229391595762
4	1366202	176	2.3789436116768
4	1381457	177	1.9044186435818
4	1396606	178	2.1589494721561
4	1412225	179	1.8396713411021
4	1434301	180	2.0696270191915
4	1449927	181	2.0111236607463
4	1469477	182	1.9642910512727
4	1486752	183	2.1731615557441
4	1502995	184	1.923572434874
4	1526205	185	1.8561023258353
4	1542920	186	2.1890582187141
4	1559705	187	2.1963956888293
4	1576931	188	1.9231637928399
4	1602953	189	2.1054147024235
4	1620444	190	1.7188260663154
4	1637235	191	2.4031119214083
4	1660209	192	1.8265887841823
4	1676933	193	1.8918554453362
4	1694103	194	2.0771229812591
4	1717447	195	2.1191228175185
4	1734553	196	2.0232267690783
4	1758252	197	2.1252008054669
4	1775730	198	2.0275077178617
4	1793143	199	2.0412729242551
4	1810945	200	1.7874619867738
4	1835340	201	2.2859641989041
4	1853157	202	1.7940359853847
4	1871405	203	2.1799404191352
4	1896805	204	1.9272899846583
4	1914989	205	1.9695069431442
4	1933636	206	2.247800618249
4	1959509	207	1.9354210695658
4	1978146	208	2.0193439936341
4	2003103	209	1.9710458469821
4	2026125	210	2.392101304659
4	2046552	211	1.9927077527417
4	2073686	212	1.8397637646392
4	2093451	213	1.9840400683757
4	2113234	214	2.3213577844599
4	2141169	215	1.8937752237764
4	2161496	216	1.8274126550796
4	2181828	217	2.3702998795124
4	2202598	218	1.9728895981744
4	2227269	219	1.9947872757439
4	2249076	220	1.845617191009
4	2275167	221	2.1789838711519
4	2298597	222	1.9398426027184
4	2320935	223	1.9001388053087
4	2355740	224	2.0537167387739
4	2377194	225	2.3818261828939
4	2404668	226	1.7837090017641
4	2426230	227	2.2168901721487
4	2451706	228	1.9771353540298
4	2480660	229	1.866469389554
4	2510136	230	2.0279100775716
4	2531910	231	1.9000183733777
4	2553597	232	2.155909497764
4	2576005	233	2.2403197427168
4	2598471	234	1.7402993602827
4	2620990	235	2.1019548025287
4	2651753	236	2.1422076955629
4	2674784	237	1.9422290772013
4	2697629	238	1.9718870457347
4	2720914	239	2.1092965685402
4	2748297	240	1.9707630538624
4	2771818	241	1.9644605793706
4	2797378	242	2.0439016836958
4	2821487	243	2.1522768550494
4	2845572	244	2.2749420380641
4	2870394	245	1.7960235898673
4	2895146	246	1.870149620829
4	2919825	247	2.0116192457564
4	2944952	248	2.3000415812287
4	2984649	249	0.973
4	3009612	250	0.973
4	3035043	251	6.2155201129428
4	3068835	252	6.9426786212708
3	108	3	1.9133529532584
3	141	4	1.6952873393311
3	271	5	1.8731499400432
3	486	6	1.8034025248489
3	701	7	2.1224504257739
3	1061	8	0.47851136310433
3	1876	9	-0.1021267059911
3	2327	10	0.086452728209551
3	2841	11	0.018149402965792
3	3541	12	-0.071146251906175
3	4179	13	-0.0001373288989992
3	4935	14	-0.013471481548622
3	5895	15	0.054527352924923
3	6789	16	0.03063477210002
3	8085	17	-0.04292928970186
3	9306	18	0.0046075960877356
3	10527	19	-2.4534173319781
3	12204	20	-4.5
3	13796	21	0.8935116339894
3	15389	22	2.2078255666373
3	17212	23	1.8858743545134
3	19078	24	1.9903831391631
3	20943	25	-0.01549494290026
3	23667	26	0.023465231521987
3	26099	27	-0.032681161146611
3	28409	28	-0.045395484422334
3	32358	29	-0.021798015409148
3	35873	30	0.019004409639164
3	38871	31	0.075803257238585
3	42050	32	-0.012492124584968
3	45623	33	-0.098418530665803
3	48776	34	0.11205169297755
3	52206	35	-0.098285225864965
3	55493	36	-0.01064266787842
3	58951	37	0.091707072502468
3	62551	38	-0.096865584938786
3	66107	39	0.021350334375166
3	69840	40	-0.020129852422979
3	74213	41	0.12754734932445
3	78154	42	-0.035107081409079
3	82513	43	-0.058123281914741
3	87499	44	0.015779600332026
3	91803	45	0.0066701874043797
3	96494	46	0.010192284216172
3	101635	47	-0.014827134867664
3	106390	48	0.044105808557942
3	112553	49	0.018181241797283
3	127354	50	-0.051492602068466
3	137692	51	-0.0050966037251055
3	146503	52	0.018296227052343
3	153406	53	-0.065421910630539
3	160221	54	-0.011582619075197
3	167643	55	0.062391626026946
3	175263	56	0.0084849686850799
3	186007	57	0.0091393382777465
3	194087	58	-0.064856647045817
3	202617	59	0.034172988792415
3	214504	60	-0.013924592840485
3	223089	61	0.011007046941668
3	234298	62	0.0067783149331806
3	245616	63	0.035106239686721
3	255604	64	-0.0023704322986315
3	268504	65	-0.016764806038699
3	278613	66	0.058098005878273
3	289603	67	0.0005279496987356
3	302283	68	-0.11307939741528
3	314793	69	-0.0042316347081215
3	328520	70	0.0057685952470639
3	344733	71	0.091050112515221
3	355276	72	-2.598181629278
3	358303	73	-4.5
3	363974	74	1.6141663366905
3	367248	75	1.9674479348469
3	370545	76	2.0734577935305
3	376457	77	1.4561270096891
3	379974	78	-0.10729147155071
3	383497	79	0.054895354490727
3	387279	80	0.036124135965947
3	395026	81	-0.056995702513959
3	398742	82	0.023857689527794
3	402746	83	0.035887326465454
3	410701	84	0.014430570646654
3	414700	85	-0.01900723606348
3	418978	86	-0.068357068288606
3	427325	87	0.010541806844994
3	431539	88	0.026970727464649
3	443004	89	-0.039115454021376
3	447483	90	0.053862404460089
3	451949	91	0.032648311303928
3	456705	92	-0.038956657010131
3	466531	93	-0.030791588313878
3	471311	94	-0.0066424664109945
3	476386	95	0.0060977504285979
3	486797	96	0.0078052465082141
3	491786	97	0.060013508324046
3	497047	98	-0.037713673899415
3	507540	99	-0.026174776835834
3	512738	100	0.032579503944145
3	518210	101	-0.063035905060826
3	526586	102	0.027582935572138
3	532011	103	0.023756794685031
3	538124	104	-0.0070456224540241
3	552033	105	-0.036268282788805
3	557599	106	0.053466656929812
3	563436	107	0.041100041202736
3	572198	108	-0.11342956024222
3	581256	109	0.027575471245218
3	587333	110	-0.015790211500134
3	599076	111	0.019690123212058
3	605110	112	-0.042638254987542
3	611447	113	0.063690714961849
3	623440	114	-0.057965367154683
3	629754	115	0.10416653290857
3	639251	116	-0.10745216409443
3	648870	117	0.046229086213279
3	655516	118	0.023514178059996
3	665672	119	0.025394806491676
3	672689	120	-0.070123969523701
3	679715	121	0.05377569567645
3	687105	122	-0.04982492672978
3	694650	123	-0.00087602079613092
3	702223	124	0.079375873252284
3	710147	125	-0.1010160947917
3	718250	126	0.013532487608026
3	726348	127	0.021514236293733
3	734973	128	0.014224878873211
3	747597	129	-0.051406734401827
3	756133	130	0.11500627390342
3	768508	131	-0.11731649283087
3	777395	132	0.037494972553104
3	786192	133	0.0066204329836186
3	795342	134	-0.034399984232149
3	810195	135	-0.0062071811757054
3	819272	136	0.062807197936344
3	828681	137	-0.054763080677949
3	843353	138	0.059015492813197
3	852798	139	-0.013975105474238
3	862643	140	-0.0098069754173054
3	875235	141	0.019237040039153
3	885172	142	0.011573406711687
3	895499	143	-0.020956001298037
3	908466	144	0.014142121695913
3	918837	145	-0.065922225145624
3	929646	146	0.064693366650026
3	945578	147	-0.065880628703161
3	956384	148	0.11515686275204
3	972390	149	-0.0054930684855208
3	989533	150	-0.079169188719241
3	1000802	151	0.033730446444824
3	1015725	152	-0.0228520826553
3	1027460	153	0.047151762775611
3	1039261	154	-0.091206070086919
3	1051466	155	-0.00063311950070855
3	1066882	156	0.041333502004855
3	1080467	157	0.076955872832331
3	1096152	158	-0.019675534043927
3	1108626	159	0.0014335568435495
3	1121072	160	0.022174404172693
3	1137239	161	-0.038941256871913
3	1149984	162	0.030695147525986
3	1162749	163	-0.04121100856457
3	1176078	164	0.025922144111247
3	1189399	165	0.0071923485631125
3	1202754	166	-0.039595530030784
3	1223208	167	0.010853665114846
3	1236952	168	-0.021078646411189
3	1255907	169	0.064385496126489
3	1270108	170	-0.031554398436565
3	1287775	171	0.029159537090454
3	1302006	172	-0.014684538582804
3	1316652	173	-0.0078666105773308
3	1334704	174	-0.013697546005714
3	1351172	175	-0.06131455638446
3	1366202	176	0.1008924189629
3	1381457	177	-0.038706410704181
3	1396606	178	0.035774679987226
3	1412225	179	-0.057385696403216
3	1434301	180	0.010741776425856
3	1449927	181	-0.0064688647538418
3	1469477	182	-0.01983351490926
3	1486752	183	0.041050446596929
3	1502995	184	-0.032217842522078
3	1526205	185	-0.050955639351159
3	1542920	186	0.04699437828036
3	1559705	187	0.047569927864243
3	1576931	188	-0.032647112903652
3	1602953	189	0.020928164378274
3	1620444	190	-0.091782979732379
3	1637235	191	0.10875057560159
3	1660209	192	-0.060795214870012
3	1676933	193	-0.040233581850771
3	1694103	194	0.014695980667602
3	1717447	195	0.026387274002191
3	1734553	196	-0.0021348645421675
3	1758252	197	0.027381560134234
3	1775730	198	-0.0016384923108852
3	1793143	199	0.0023850808525463
3	1810945	200	-0.071337920916267
3	1835340	201	0.075058642441872
3	1853157	202	-0.069512550472281
3	1871405	203	0.044363746291491
3	1896805	204	-0.030078826393
3	1914989	205	-0.016976084767375
3	1933636	206	0.063993390803224
3	1959509	207	-0.028184901357163
3	1978146	208	-0.0030630180658768
3	2003103	209	-0.016976034734398
3	2026125	210	0.10479507165262
3	2046552	211	-0.013211421454326
3	2073686	212	-0.057094136055094
3	2093451	213	-0.013706459412351
3	2113234	214	0.083830608546268
3	2141169	215	-0.041779491452035
3	2161496	216	-0.059950716574676
3	2181828	217	0.098461431174073
3	2202598	218	-0.018828529044985
3	2227269	219	-0.011973386614118
3	2249076	220	-0.054853362506256
3	2275167	221	0.043154953562189
3	2298597	222	-0.027196423076093
3	2320935	223	-0.037979120847304
3	2355740	224	0.0076740621007048
3	2377194	225	0.10181095059728
3	2404668	226	-0.073669197976123
3	2426230	227	0.053598402959759
3	2451706	228	-0.017086343464907
3	2480660	229	-0.048676233110017
3	2510136	230	-0.0005028710095214
3	2531910	231	-0.037615004268009
3	2553597	232	0.037678894139825
3	2576005	233	0.060744162921329
3	2598471	234	-0.085698609841057
3	2620990	235	0.021687922640703
3	2651753	236	0.032629402803723
3	2674784	237	-0.026155869879295
3	2697629	238	-0.016820155980531
3	2720914	239	0.023457866050304
3	2748297	240	-0.017334249692505
3	2771818	241	-0.018673455752431
3	2797378	242	0.0049182024737817
3	2821487	243	0.03610487366328
3	2845572	244	0.070166818364523
3	2870394	245	-0.070058906949125
3	2895146	246	-0.046709825969302
3	2919825	247	-0.0042825089534748
3	2944952	248	0.079118450649549
3	2984649	249	-3.0745351618249
3	3009612	250	-4.4863291299924
3	3035043	251	2.228807697075
3	3068835	252	2.0289484944078
2	75	2	4.1061966058897
2	108	3	6.0195495591482
2	141	4	7.7148368984793
2	271	5	9.5879868385225
2	486	6	11.391389363371
2	701	7	13.513839789145
2	1061	8	13.99235115225
2	1876	9	13.890224446259
2	2327	10	13.976677174468
2	2841	11	13.994826577434
2	3541	12	13.923680325528
2	4179	13	13.923542996629
2	4935	14	13.91007151508
2	5895	15	13.964598868005
2	6789	16	13.995233640105
2	8085	17	13.952304350403
2	9306	18	13.956911946491
2	10527	19	11.503494614513
2	12204	20	7.0034946145128
2	13796	21	7.8970062485022
2	15389	22	10.10483181514
2	17212	23	11.990706169653
2	19078	24	13.981089308816
2	20943	25	13.965594365916
2	23667	26	13.989059597438
2	26099	27	13.956378436291
2	28409	28	13.910982951869
2	32358	29	13.88918493646
2	35873	30	13.908189346099
2	38871	31	13.983992603337
2	42050	32	13.971500478752
2	45623	33	13.873081948087
2	48776	34	13.985133641064
2	52206	35	13.886848415199
2	55493	36	13.876205747321
2	58951	37	13.967912819823
2	62551	38	13.871047234884
2	66107	39	13.89239756926
2	69840	40	13.872267716837
2	74213	41	13.999815066161
2	78154	42	13.964707984752
2	82513	43	13.906584702837
2	87499	44	13.922364303169
2	91803	45	13.929034490574
2	96494	46	13.93922677479
2	101635	47	13.924399639922
2	106390	48	13.96850544848
2	112553	49	13.986686690277
2	127354	50	13.935194088209
2	137692	51	13.930097484484
2	146503	52	13.948393711536
2	153406	53	13.882971800906
2	160221	54	13.87138918183
2	167643	55	13.933780807857
2	175263	56	13.942265776542
2	186007	57	13.95140511482
2	194087	58	13.886548467774
2	202617	59	13.920721456567
2	214504	60	13.906796863726
2	223089	61	13.917803910668
2	234298	62	13.924582225601
2	245616	63	13.959688465288
2	255604	64	13.957318032989
2	268504	65	13.940553226951
2	278613	66	13.998651232829
2	289603	67	13.999179182528
2	302283	68	13.886099785112
2	314793	69	13.881868150404
2	328520	70	13.887636745651
2	344733	71	13.978686858166
2	355276	72	11.380505228889
2	358303	73	6.8805052288885
2	363974	74	8.4946715655791
2	367248	75	10.462119500426
2	370545	76	12.535577293956
2	376457	77	13.991704303646
2	379974	78	13.884412832095
2	383497	79	13.939308186586
2	387279	80	13.975432322551
2	395026	81	13.918436620038
2	398742	82	13.942294309565
2	402746	83	13.978181636031
2	410701	84	13.992612206677
2	414700	85	13.973604970614
2	418978	86	13.905247902325
2	427325	87	13.91578970917
2	431539	88	13.942760436635
2	443004	89	13.903644982614
2	447483	90	13.957507387074
2	451949	91	13.990155698378
2	456705	92	13.951199041368
2	466531	93	13.920407453054
2	471311	94	13.913764986643
2	476386	95	13.919862737071
2	486797	96	13.927667983579
2	491786	97	13.987681491903
2	497047	98	13.949967818004
2	507540	99	13.923793041168
2	512738	100	13.956372545112
2	518210	101	13.893336640052
2	526586	102	13.920919575624
2	532011	103	13.944676370309
2	538124	104	13.937630747855
2	552033	105	13.901362465066
2	557599	106	13.954829121996
2	563436	107	13.995929163198
2	572198	108	13.882499602956
2	581256	109	13.910075074201
2	587333	110	13.894284862701
2	599076	111	13.913974985913
2	605110	112	13.871336730926
2	611447	113	13.935027445888
2	623440	114	13.877062078733
2	629754	115	13.981228611642
2	639251	116	13.873776447547
2	648870	117	13.92000553376
2	655516	118	13.94351971182
2	665672	119	13.968914518312
2	672689	120	13.898790548788
2	679715	121	13.952566244465
2	687105	122	13.902741317735
2	694650	123	13.901865296939
2	702223	124	13.981241170191
2	710147	125	13.8802250754
2	718250	126	13.893757563008
2	726348	127	13.915271799301
2	734973	128	13.929496678174
2	747597	129	13.878089943773
2	756133	130	13.993096217676
2	768508	131	13.875779724845
2	777395	132	13.913274697398
2	786192	133	13.919895130382
2	795342	134	13.88549514615
2	810195	135	13.879287964974
2	819272	136	13.94209516291
2	828681	137	13.887332082232
2	843353	138	13.946347575046
2	852798	139	13.932372469571
2	862643	140	13.922565494154
2	875235	141	13.941802534193
2	885172	142	13.953375940905
2	895499	143	13.932419939607
2	908466	144	13.946562061303
2	918837	145	13.880639836157
2	929646	146	13.945333202807
2	945578	147	13.879452574104
2	956384	148	13.994609436856
2	972390	149	13.989116368371
2	989533	150	13.909947179651
2	1000802	151	13.943677626096
2	1015725	152	13.920825543441
2	1027460	153	13.967977306216
2	1039261	154	13.87677123613
2	1051466	155	13.876138116629
2	1066882	156	13.917471618634
2	1080467	157	13.994427491466
2	1096152	158	13.974751957422
2	1108626	159	13.976185514266
2	1121072	160	13.998359918438
2	1137239	161	13.959418661566
2	1149984	162	13.990113809092
2	1162749	163	13.948902800528
2	1176078	164	13.974824944639
2	1189399	165	13.982017293202
2	1202754	166	13.942421763171
2	1223208	167	13.953275428286
2	1236952	168	13.932196781875
2	1255907	169	13.996582278002
2	1270108	170	13.965027879565
2	1287775	171	13.994187416655
2	1302006	172	13.979502878073
2	1316652	173	13.971636267495
2	1334704	174	13.95793872149
2	1351172	175	13.896624165105
2	1366202	176	13.997516584068
2	1381457	177	13.958810173364
2	1396606	178	13.994584853351
2	1412225	179	13.937199156948
2	1434301	180	13.947940933374
2	1449927	181	13.94147206862
2	1469477	182	13.921638553711
2	1486752	183	13.962689000308
2	1502995	184	13.930471157786
2	1526205	185	13.879515518434
2	1542920	186	13.926509896715
2	1559705	187	13.974079824579
2	1576931	188	13.941432711675
2	1602953	189	13.962360876054
2	1620444	190	13.870577896321
2	1637235	191	13.979328471923
2	1660209	192	13.918533257053
2	1676933	193	13.878299675202
2	1694103	194	13.89299565587
2	1717447	195	13.919382929872
2	1734553	196	13.91724806533
2	1758252	197	13.944629625464
2	1775730	198	13.942991133153
2	1793143	199	13.945376214006
2	1810945	200	13.874038293089
2	1835340	201	13.949096935531
2	1853157	202	13.879584385059
2	1871405	203	13.92394813135
2	1896805	204	13.893869304957
2	1914989	205	13.87689322019
2	1933636	206	13.940886610993
2	1959509	207	13.912701709636
2	1978146	208	13.90963869157
2	2003103	209	13.892662656836
2	2026125	210	13.997457728488
2	2046552	211	13.984246307034
2	2073686	212	13.927152170979
2	2093451	213	13.913445711567
2	2113234	214	13.997276320113
2	2141169	215	13.955496828661
2	2161496	216	13.895546112086
2	2181828	217	13.99400754326
2	2202598	218	13.975179014215
2	2227269	219	13.963205627601
2	2249076	220	13.908352265095
2	2275167	221	13.951507218657
2	2298597	222	13.924310795581
2	2320935	223	13.886331674734
2	2355740	224	13.894005736834
2	2377194	225	13.995816687432
2	2404668	226	13.922147489456
2	2426230	227	13.975745892415
2	2451706	228	13.95865954895
2	2480660	229	13.90998331584
2	2510136	230	13.909480444831
2	2531910	231	13.871865440563
2	2553597	232	13.909544334703
2	2576005	233	13.970288497624
2	2598471	234	13.884589887783
2	2620990	235	13.906277810424
2	2651753	236	13.938907213227
2	2674784	237	13.912751343348
2	2697629	238	13.895931187368
2	2720914	239	13.919389053418
2	2748297	240	13.902054803725
2	2771818	241	13.883381347973
2	2797378	242	13.888299550447
2	2821487	243	13.92440442411
2	2845572	244	13.994571242474
2	2870394	245	13.924512335525
2	2895146	246	13.877802509556
2	2919825	247	13.873520000603
2	2944952	248	13.952638451252
2	2984649	249	10.878103289427
2	3009612	250	6.3917741594348
2	3035043	251	8.6205818565098
2	3068835	252	10.649530350918
1	42	1	1578.4613427464
1	75	2	1578.4613427464
1	108	3	1579.5715045081
1	141	4	1581.5561876604
1	271	5	1586.4898643075
1	486	6	1592.7177137369
1	701	7	1600.2534592729
1	1061	8	1609.1769437566
1	1876	9	1619.0710908128
1	2327	10	1629.0037637418
1	2841	11	1638.9341008412
1	3541	12	1649.1129276818
1	4179	13	1661.0453354148
1	4935	14	1673.5713017788
1	5895	15	1682.4825292248
1	6789	16	1691.8131453674
1	8085	17	1695.5671389326
1	9306	18	1697.3762977775
1	10527	19	1698.7149431584
1	12204	20	1699.9531973498
1	13796	21	1700.8030368192
1	15389	22	1701.4822415169
1	17212	23	1709.488976148
1	19078	24	1720.5600911779
1	20943	25	1733.5392477075
1	23667	26	1747.3162704222
1	26099	27	1761.1584832035
1	28409	28	1775.0702432813
1	32358	29	1788.9649324082
1	35873	30	1802.8657313576
1	38871	31	1816.7641749373
1	42050	32	1830.6712168986
1	45623	33	1844.5682703312
1	48776	34	1858.4757581847
1	52206	35	1872.3796654344
1	55493	36	1886.2682729438
1	58951	37	1900.1617258992
1	62551	38	1914.0672918586
1	66107	39	1927.95593304
1	69840	40	1941.8192613758
1	74213	41	1955.7024557721
1	78154	42	1969.5841215905
1	82513	43	1983.4787444612
1	87499	44	1997.3802024601
1	91803	45	2011.2714909082
1	96494	46	2025.1553793969
1	101635	47	2039.0458765477
1	106390	48	2052.9329446238
1	112553	49	2066.8462265795
1	127354	50	2080.7728807703
1	137692	51	2094.6498483503
1	146503	52	2107.3969092406
1	153406	53	2116.410831539
1	160221	54	2120.9360540062
1	167643	55	2120.5048353085
1	175263	56	2120.0344859883
1	186007	57	2119.5641121576
1	194087	58	2119.0944308629
1	202617	59	2118.6240558857
1	214504	60	2118.1536666537
1	223089	61	2117.6824006466
1	234298	62	2117.2121830918
1	245616	63	2116.7411177447
1	255604	64	2116.2712858524
1	268504	65	2115.8005333487
1	278613	66	2114.7955725584
1	289603	67	2112.8364102887
1	302283	68	2110.6440530941
1	314793	69	2106.1704403665
1	328520	70	2101.6975887315
1	344733	71	2096.6391956527
1	355276	72	2089.5697793076
1	358303	73	2082.9376931852
1	363974	74	2078.419863862
1	367248	75	2074.2936624894
1	370545	76	2067.3736373968
1	376457	77	2058.9511591028
1	379974	78	2049.1102951029
1	383497	79	2038.9478712408
1	387279	80	2028.7758523691
1	395026	81	2018.5996289225
1	398742	82	2008.4287304608
1	402746	83	1998.2495835368
1	410701	84	1988.0651562605
1	414700	85	1977.9077978879
1	418978	86	1968.1884612162
1	427325	87	1958.4779514531
1	431539	88	1948.7639992675
1	443004	89	1939.0549603878
1	447483	90	1929.3436047509
1	451949	91	1919.6330251861
1	456705	92	1909.910822208
1	466531	93	1900.1872029733
1	471311	94	1890.4840445621
1	476386	95	1880.7721485039
1	486797	96	1871.0513723353
1	491786	97	1861.0772373844
1	497047	98	1851.0875595547
1	507540	99	1841.096139106
1	512738	100	1831.1202287339
1	518210	101	1821.144089778
1	526586	102	1811.1678648908
1	532011	103	1801.1912086597
1	538124	104	1791.209887621
1	552033	105	1781.2482476477
1	557599	106	1771.277584523
1	563436	107	1761.5227281116
1	572198	108	1751.9260671614
1	581256	109	1742.3262181729
1	587333	110	1732.5843797447
1	599076	111	1722.8299162164
1	605110	112	1713.086449923
1	611447	113	1703.3381465003
1	623440	114	1693.5765614985
1	629754	115	1683.8264469272
1	639251	116	1674.0761652095
1	648870	117	1664.3203321155
1	655516	118	1654.5670952313
1	665672	119	1644.823870291
1	672689	120	1635.0678587342
1	679715	121	1625.336210235
1	687105	122	1615.5782095939
1	694650	123	1605.8165506711
1	702223	124	1596.0659276582
1	710147	125	1586.3064208571
1	718250	126	1576.5483956924
1	726348	127	1566.7923985375
1	734973	128	1557.0515624536
1	747597	129	1547.2834782302
1	756133	130	1537.3798678434
1	768508	131	1527.4649110558
1	777395	132	1517.5608619647
1	786192	133	1507.6508360393
1	795342	134	1497.737215165
1	810195	135	1488.4719928391
1	819272	136	1479.3458707612
1	828681	137	1470.2179115769
1	843353	138	1461.0960824257
1	852798	139	1451.9691580441
1	862643	140	1443.4222617447
1	875235	141	1435.3820641451
1	885172	142	1427.3446103698
1	895499	143	1419.3110376056
1	908466	144	1411.2766984925
1	918837	145	1404.4971290641
1	929646	146	1398.5528459009
1	945578	147	1392.5984726185
1	956384	148	1386.6349876709
1	972390	149	1382.2383795483
1	989533	150	1377.9442636594
1	1000802	151	1373.6595358783
1	1015725	152	1370.8648780324
1	1027460	153	1368.6529144663
1	1039261	154	1366.2626287099
1	1051466	155	1363.9400776494
1	1066882	156	1361.5025957329
1	1080467	157	1359.1761908894
1	1096152	158	1357.0937092975
1	1108626	159	1355.3227530839
1	1121072	160	1353.8606677661
1	1137239	161	1352.4001931148
1	1149984	162	1350.9373894874
1	1162749	163	1349.4757576613
1	1176078	164	1348.0170385102
1	1189399	165	1346.554069207
1	1202754	166	1345.0926451068
1	1223208	167	1343.6316944081
1	1236952	168	1342.169206298
1	1255907	169	1340.8016817579
1	1270108	170	1339.8476453517
1	1287775	171	1338.88675889
1	1302006	172	1337.7580269873
1	1316652	173	1336.5687706266
1	1334704	174	1335.3785909312
1	1351172	175	1334.1870099697
1	1366202	176	1332.9974499373
1	1381457	177	1331.807691264
1	1396606	178	1330.6170756808
1	1412225	179	1329.4270746866
1	1434301	180	1328.235561965
1	1449927	181	1327.0451201648
1	1469477	182	1325.8546584239
1	1486752	183	1324.6631557113
1	1502995	184	1323.4921323741
1	1526205	185	1322.3833192652
1	1542920	186	1321.2740472825
1	1559705	187	1320.1657407004
1	1576931	188	1319.044544382
1	1602953	189	1318.2097313078
1	1620444	190	1317.4871134162
1	1637235	191	1316.2875415171
1	1660209	192	1314.6404569708
1	1676933	193	1312.7569282195
1	1694103	194	1310.8746230919
1	1717447	195	1312.2296878621
1	1734553	196	1309.318593815
1	1758252	197	1306.1411478268
1	1775730	198	1302.9660233352
1	1793143	199	1299.789149831
1	1810945	200	1296.3137446754
1	1835340	201	1292.5515033305
1	1853157	202	1288.7923334399
1	1871405	203	1284.9714143453
1	1896805	204	1280.8085952131
1	1914989	205	1276.6481711147
1	1933636	206	1272.0269843545
1	1959509	207	1266.8293056842
1	1978146	208	1261.6324179135
1	2003103	209	1256.4920189464
1	2026125	210	1251.6446111212
1	2046552	211	1246.7924843412
1	2073686	212	1241.621282829
1	2093451	213	1235.922153743
1	2113234	214	1230.2174944794
1	2141169	215	1224.5151331984
1	2161496	216	1218.7807038762
1	2181828	217	1218.998228698
1	2202598	218	1231.5931130555
1	2227269	219	1244.7946764436
1	2249076	220	1257.9787944583
1	2275167	221	1271.1796462424
1	2298597	222	1284.3789763469
1	2320935	223	1297.5799748562
1	2355740	224	1310.7715928406
1	2377194	225	1323.9813642986
1	2404668	226	1337.1741084298
1	2426230	227	1350.376634392
1	2451706	228	1363.5687719872
1	2480660	229	1376.7589407666
1	2510136	230	1389.8083805079
1	2531910	231	1402.8152361419
1	2553597	232	1415.7949445834
1	2576005	233	1428.7715739543
1	2598471	234	1441.7532074079
1	2620990	235	1454.7179528624
1	2651753	236	1467.7475299882
1	2674784	237	1480.7783373231
1	2697629	238	1493.7928807372
1	2720914	239	1505.0216565598
1	2748297	240	1499.1603543786
1	2771818	241	1493.1545708561
1	2797378	242	1487.153926569
1	2821487	243	1481.1516754813
1	2845572	244	1475.3022421869
1	2870394	245	1469.5472078808
1	2895146	246	1463.6936589731
1	2919825	247	1457.8323443765
1	2944952	248	1451.6295216335
1	2984649	249	1445.2875036169
1	3009612	250	1439.4949099924
1	3035043	251	1435.6688813828
1	3068835	252	1431.865068363
0	42	1	2414.8476884116
0	75	2	2414.8476884116
0	108	3	2411.8243290941
0	141	4	2407.1592244543
0	271	5	2402.288200066
0	486	6	2396.1394374635
0	701	7	2388.6993875942
0	1061	8	2379.889221533
0	1876	9	2370.1207192459
0	2327	10	2360.3141803208
0	2841	11	2350.5099475634
0	3541	12	2341.0010868867
0	4179	13	2334.5620136983
0	4935	14	2337.6803779466
0	5895	15	2348.3497968862
0	6789	16	2358.6961674725
0	8085	17	2371.6616533546
0	9306	18	2385.4706804305
0	10527	19	2399.3588350668
0	12204	20	2412.4541998667
0	13796	21	2421.4418196582
0	15389	22	2428.417609864
0	17212	23	2431.468930052
0	19078	24	2433.1513403206
0	20943	25	2435.1237040944
0	23667	26	2437.2173147583
0	26099	27	2438.6437980286
0	28409	28	2439.5074353185
0	32358	29	2440.517813261
0	35873	30	2441.5286354903
0	38871	31	2442.5392864447
0	42050	32	2443.5505626462
0	45623	33	2444.5611125134
0	48776	34	2445.5724211388
0	52206	35	2446.5834693939
0	55493	36	2447.5934051003
0	58951	37	2448.6036931522
0	62551	38	2449.6148620235
0	66107	39	2450.6248001783
0	69840	40	2449.5880553933
0	74213	41	2448.4757357414
0	78154	42	2447.3635385588
0	82513	43	2446.250303259
0	87499	44	2445.1365203297
0	91803	45	2444.0235521834
0	96494	46	2442.9111769209
0	101635	47	2441.7982721732
0	106390	48	2440.6856421625
0	112553	49	2439.7151308154
0	127354	50	2438.7725309408
0	137692	51	2437.9056889905
0	146503	52	2432.8785054281
0	153406	53	2422.5273191113
0	160221	54	2409.439604845
0	167643	55	2395.517893619
0	175263	56	2381.592286239
0	186007	57	2367.6659531716
0	194087	58	2353.7601239877
0	202617	59	2339.8337569573
0	214504	60	2325.9069679289
0	223089	61	2311.9542202253
0	234298	62	2298.0325140053
0	245616	63	2284.0857072632
0	255604	64	2270.1754193477
0	268504	65	2256.2378749268
0	278613	66	2242.3725172955
0	289603	67	2228.5568932705
0	302283	68	2214.8035730832
0	314793	69	2201.6130456962
0	328520	70	2188.4247624045
0	344733	71	2175.5107078577
0	355276	72	2163.5018647154
0	358303	73	2152.2359160049
0	363974	74	2144.5614629743
0	367248	75	2138.2558950796
0	370545	76	2131.5955681979
0	376457	77	2123.7056670481
0	379974	78	2114.4870687368
0	383497	79	2104.967243704
0	387279	80	2095.4384303803
0	395026	81	2085.9056783495
0	398742	82	2076.3779145891
0	402746	83	2066.8424239405
0	410701	84	2057.3019868316
0	414700	85	2047.7591241145
0	418978	86	2037.7608240946
0	427325	87	2027.7716043318
0	431539	88	2017.7788433422
0	443004	89	2007.7911366803
0	447483	90	1997.8010467655
0	451949	91	1987.8117551972
0	456705	92	1977.8105066026
0	466531	93	1967.8078011014
0	471311	94	1957.8261436883
0	476386	95	1947.8354978411
0	486797	96	1937.8357170075
0	491786	97	1928.0943876163
0	497047	98	1918.3458898404
0	507540	99	1908.595691517
0	512738	100	1898.860628812
0	518210	101	1889.1253430418
0	526586	102	1879.3899734151
0	532011	103	1869.6541828585
0	538124	104	1859.9138401168
0	552033	105	1850.1927032812
0	557599	106	1840.4627611398
0	563436	107	1830.4943832025
0	572198	108	1820.3899234756
0	581256	109	1810.2821070175
0	587333	110	1800.3072354572
0	599076	111	1790.3538284535
0	605110	112	1780.4116429748
0	611447	113	1770.4645217122
0	623440	114	1760.5038479915
0	629754	115	1750.5548786415
0	639251	116	1740.6057387365
0	648870	117	1730.6509342341
0	655516	118	1720.6987788925
0	665672	119	1710.7568396883
0	672689	120	1700.8018530838
0	679715	121	1690.8717264237
0	687105	122	1680.914710167
0	694650	123	1670.9539610179
0	702223	124	1661.0044728565
0	710147	125	1651.0459197217
0	718250	126	1641.088878441
0	726348	127	1631.133906532
0	734973	128	1621.1944049059
0	747597	129	1611.4016974772
0	756133	130	1601.5908368229
0	768508	131	1591.7687360296
0	777395	132	1581.95744078
0	786192	133	1572.1402246708
0	795342	134	1562.3194472806
0	810195	135	1551.9221256066
0	819272	136	1541.3717610573
0	828681	137	1530.8192726985
0	843353	138	1520.27387104
0	852798	139	1509.7225789776
0	862643	140	1498.7459730455
0	875235	141	1487.3369203644
0	885172	142	1475.9317611735
0	895499	143	1464.5321091436
0	908466	144	1453.1313696638
0	918837	145	1440.9810547153
0	929646	146	1428.37280161
0	945578	147	1415.7431466343
0	956384	148	1403.0941651607
0	972390	149	1389.8238873205
0	989533	150	1376.5141631895
0	1000802	151	1363.2335377458
0	1015725	152	1349.6644354427
0	1027460	153	1335.903612455
0	1039261	154	1322.2844071649
0	1051466	155	1308.5434932974
0	1066882	156	1294.8376443418
0	1080467	157	1281.0982487688
0	1096152	158	1267.3308680035
0	1108626	159	1253.5230468827
0	1121072	160	1239.6590378741
0	1137239	161	1225.8103017703
0	1149984	162	1211.9394814936
0	1162749	163	1198.079772646
0	1176078	164	1184.2476828147
0	1189399	165	1170.3752915382
0	1202754	166	1156.5175524234
0	1223208	167	1142.6643022699
0	1236952	168	1128.7964738311
0	1255907	169	1114.9195256233
0	1270108	170	1101.0064947121
0	1287775	171	1087.09277308
0	1302006	172	1073.1940094858
0	1316652	173	1059.3295235746
0	1334704	174	1045.454273331
0	1351172	175	1031.562686957
0	1366202	176	1017.6946608142
0	1381457	177	1003.8243188869
0	1396606	178	989.94398700946
0	1412225	179	976.07082008105
0	1434301	180	962.18002925336
0	1449927	181	948.30172335601
0	1469477	182	934.42318499158
0	1486752	183	920.53251085198
0	1502995	184	906.64519986149
0	1526205	185	892.7792307022
0	1542920	186	878.90752320935
0	1559705	187	865.04788829049
0	1576931	188	851.15055305208
0	1602953	189	837.24482767389
0	1620444	190	823.33443326002
0	1637235	191	809.46681111713
0	1660209	192	795.63520164602
0	1676933	193	781.83242588444
0	1694103	194	768.03861702629
0	1717447	195	753.56771098508
0	1734553	196	739.93396619707
0	1758252	197	726.35413698584
0	1775730	198	712.78422943095
0	1793143	199	699.20684691181
0	1810945	200	685.71620551473
0	1835340	201	672.26203093457
0	1853157	202	658.81884020194
0	1871405	203	645.40229339118
0	1896805	204	632.07980250649
0	1914989	205	618.76497657609
0	1933636	206	605.5909563204
0	1959509	207	592.65048638859
0	1978146	208	579.71198553033
0	2003103	209	566.73144802963
0	2026125	210	553.6544718215
0	2046552	211	540.56476516603
0	2073686	212	527.5969918645
0	2093451	213	514.86569167289
0	2113234	214	502.12203760166
0	2141169	215	489.38351699908
0	2161496	216	476.68061928626
0	2181828	217	464.31813278235
0	2202598	218	458.54576970637
0	2227269	219	454.06063902681
0	2249076	220	449.58401126228
0	2275167	221	445.10170159675
0	2298597	222	440.61956127337
0	2320935	223	436.13447082217
0	2355740	224	431.65366202267
0	2377194	225	427.16713215667
0	2404668	226	422.68912263226
0	2426230	227	418.21837646177
0	2451706	228	413.75248787331
0	2480660	229	409.2791097525
0	2510136	230	404.38573488605
0	2531910	231	399.31672242878
0	2553597	232	394.25828973495
0	2576005	233	389.20105701196
0	2598471	234	384.1418741052
0	2620990	235	379.08927276451
0	2651753	236	374.12068298308
0	2674784	237	369.16597165435
0	2697629	238	364.21744436526
0	2720914	239	357.65389608347
0	2748297	240	345.01951615291
0	2771818	241	332.44290033728
0	2797378	242	319.87704651256
0	2821487	243	307.30782791297
0	2845572	244	294.66797556402
0	2870394	245	281.96690633683
0	2895146	246	269.34005897248
0	2919825	247	256.69646003423
0	2944952	248	244.22894317296
0	2984649	249	231.80669483321
0	3009612	250	220.46061597636
0	3035043	251	212.966490697
0	3068835	252	206.25397376029
vector 501 Network.V[84].veinsmobility posx ETV
vector 502 Network.V[84].veinsmobility posy ETV
vector 503 Network.V[84].veinsmobility speed ETV
vector 504 Network.V[84].appl "No of CRL Pieces" ETV
vector 505 Network.V[84].veinsmobility acceleration ETV
vector 506 Network.V[84].veinsmobility co2emission ETV
17	2004	9.24955640041	1
17	33103	29.249577732498	2
17	128745	50.249586932909	3
17	128837	50.252796932909	4
17	128929	50.255967932909	5
17	129021	50.259164932909	6
17	129113	50.262374932909	7
17	129205	50.265571932909	8
17	129297	50.268742932909	9
17	129389	50.271926932909	10
17	129481	50.275110932909	11
17	307318	68.448990661028	12
17	307505	68.455410661028	13
17	307693	68.461804661028	14
17	308259	68.481038661028	15
17	308448	68.487393661028	16
17	308542	68.490590661028	17
17	308636	68.493761661028	18
17	308731	68.496971661028	19
17	308960	68.503352661028	20
9	486	6	3.9274001426868
9	701	7	5.2041356246368
9	1061	8	5.7574507674447
9	1876	9	7.0006276784153
9	2327	10	8.2432295261252
9	2841	11	3.9110016848773
9	3541	12	1.7792042638201
9	4179	13	2.0579365757541
9	4935	14	2.3818636967155
9	5895	15	1.7037407999188
9	6789	16	2.0152488537881
9	8085	17	2.1655550639215
9	9306	18	1.906797412239
9	10527	19	2.2849654495652
9	12204	20	1.9716653983805
9	13796	21	0.973
9	15389	22	0.973
9	17212	23	0.973
9	19078	24	2.2554772362628
9	20943	25	5.6120472675651
9	23667	26	7.5119842129131
9	26099	27	8.4455276517466
9	28409	28	3.3560730035355
9	32358	29	1.8466200733259
9	35873	30	2.0660268329645
9	38871	31	2.2281549844786
9	42050	32	1.9335288120447
9	45623	33	1.9767670407741
9	48776	34	1.9283950769156
9	52206	35	2.0949799016024
9	55493	36	1.9290667558988
9	58951	37	2.3468857079218
9	62551	38	1.8793040227889
9	66107	39	1.8954681876561
9	69840	40	2.2553467174174
9	74213	41	1.7429567241042
9	78154	42	2.0192482635441
9	82513	43	2.1827359052182
9	87499	44	2.0164367628106
9	91803	45	2.1348602115454
9	96494	46	2.0878872407227
9	101635	47	1.8642059318509
9	106390	48	2.0401536442479
9	112553	49	1.9464315106901
9	127354	50	2.2632042711189
9	137692	51	1.851180617826
9	146503	52	2.2486511283506
9	153406	53	2.0047870143605
9	160221	54	2.1193583924862
9	167643	55	1.9065956504161
9	175263	56	1.8305118457369
9	186007	57	2.2544630998412
9	194087	58	1.9497933768092
9	202617	59	2.199742909699
9	214504	60	1.9416842431598
9	223089	61	2.0340583936544
9	234298	62	1.8947902862501
9	245616	63	2.3236156337703
9	255604	64	1.8116807487081
9	268504	65	2.1067187558746
9	278613	66	2.0440470145686
9	289603	67	1.9485115452067
9	302283	68	2.1878187851485
9	314793	69	1.6791237400594
9	328520	70	2.2755265645048
9	344733	71	2.0225291815531
9	355276	72	1.9399893034582
9	358303	73	2.0029455902709
9	363974	74	1.4663345211208
9	367248	75	0.973
9	370545	76	0.973
9	376457	77	2.0711335261948
9	379974	78	6.4152831024102
9	383497	79	7.8881081638602
9	387279	80	8.7525284671264
9	395026	81	1.815189301835
9	398742	82	2.1926999225795
9	402746	83	2.0363789456198
9	410701	84	2.2022797105907
9	414700	85	1.6943401481553
9	418978	86	2.3980130110749
9	427325	87	1.9363832529257
9	431539	88	2.1682681767827
9	443004	89	1.6918937064968
9	447483	90	2.1131931668759
9	451949	91	2.2104031609639
9	456705	92	1.7227981158715
9	466531	93	2.1979337916806
9	471311	94	2.0197021153789
9	476386	95	2.0391171435245
9	486797	96	2.2261991945464
9	491786	97	1.7515996111392
9	497047	98	2.2995223407801
9	507540	99	1.8008227620704
9	512738	100	2.1857101524767
9	518210	101	1.9087755896745
9	526586	102	2.0627447358658
9	532011	103	1.9851118107104
9	538124	104	2.1093420628985
9	552033	105	2.2129857683168
9	557599	106	1.8308220216017
9	563436	107	2.1444722311404
9	572198	108	2.0355784928867
9	581256	109	2.0225109202385
9	587333	110	1.8904941269999
9	599076	111	1.9609544694714
9	605110	112	2.1225900669388
9	611447	113	1.8719619172019
9	623440	114	2.2944565722334
9	629754	115	2.1139814038152
9	639251	116	2.0497258004765
9	648870	117	1.8214044611061
9	655516	118	2.1974299774128
9	665672	119	2.0587102346889
9	672689	120	1.7775142086521
9	679715	121	2.1897334323985
9	687105	122	1.996556277867
9	694650	123	1.8780334086171
9	702223	124	1.9486210960065
9	710147	125	2.3653409168875
9	718250	126	1.9000292435893
9	726348	127	2.0717212867176
9	734973	128	1.8445072379646
9	747597	129	2.1162534272185
9	756133	130	2.2776331997634
9	768508	131	1.7725872185708
9	777395	132	2.2912967597894
9	786192	133	1.8528600408083
9	795342	134	1.9330331343468
9	810195	135	2.0465755532814
9	819272	136	2.2659055273814
9	828681	137	1.8676913138819
9	843353	138	2.0910132406566
9	852798	139	2.0043570379106
9	862643	140	2.030793134949
9	875235	141	1.9423234639898
9	885172	142	1.927848582712
9	895499	143	2.2698294292933
9	908466	144	1.7770096234678
9	918837	145	2.3367194719381
9	929646	146	1.859703679116
9	945578	147	2.1330729430549
9	956384	148	2.1358660794021
9	972390	149	1.7570872917791
9	989533	150	2.2526062298388
9	1000802	151	2.1288224415809
9	1015725	152	1.9635057791053
9	1027460	153	1.8895605130103
9	1039261	154	2.2263741095757
9	1051466	155	1.882075928944
9	1066882	156	2.2532002763803
9	1080467	157	1.8360167560027
9	1096152	158	2.1534761844155
9	1108626	159	1.8707748688179
9	1121072	160	2.211812015765
9	1137239	161	1.7071373030442
9	1149984	162	2.0361644423435
9	1162749	163	2.090897582556
9	1176078	164	2.2242422079567
9	1189399	165	1.8485453953928
9	1202754	166	1.9435434161483
9	1223208	167	2.2639487509947
9	1236952	168	2.04134454436
9	1255907	169	2.1980837882338
9	1270108	170	1.7122954482887
9	1287775	171	1.9617700101395
9	1302006	172	2.2580571351396
9	1316652	173	1.9464158018033
9	1334704	174	2.2039698413109
9	1351172	175	1.8283356700218
9	1366202	176	1.9093046019252
9	1381457	177	2.2496876104686
9	1396606	178	1.9172335011079
9	1412225	179	2.2031702198692
9	1434301	180	1.9128046296068
9	1449927	181	2.0741380357498
9	1469477	182	2.206946044161
9	1486752	183	1.6977101226333
9	1502995	184	2.0710706900758
9	1526205	185	2.1246940168337
9	1542920	186	2.2740383306431
9	1559705	187	1.8151068318442
9	1576931	188	1.869098500666
9	1602953	189	2.4129979409229
9	1620444	190	1.7603412831536
9	1637235	191	2.0733850188152
9	1660209	192	2.1471488825316
9	1676933	193	2.0174689976898
9	1694103	194	1.8350922917858
9	1717447	195	1.9898603202048
9	1734553	196	2.2449202398961
9	1758252	197	1.7834002454186
9	1775730	198	2.3534778961154
9	1793143	199	1.9263154075013
9	1810945	200	1.9117406178101
9	1835340	201	2.2153396623226
9	1853157	202	2.1495808614158
9	1871405	203	1.8519233670163
9	1896805	204	1.7982110008827
9	1914989	205	2.2778778856224
9	1933636	206	2.1611597807434
9	1959509	207	2.0511165726411
9	1978146	208	1.6955796131478
9	2003103	209	1.9973569401021
9	2026125	210	2.4076150134145
9	2046552	211	1.6459064172448
9	2073686	212	2.1693475303698
9	2093451	213	2.0103060408626
9	2113234	214	2.1753267943563
9	2141169	215	1.9402899071139
9	2161496	216	1.890580111367
9	2181828	217	2.1184459462784
9	2202598	218	2.0161838066024
9	2227269	219	2.3522199613807
9	2249076	220	2.0244965247655
9	2275167	221	2.0054810000144
9	2298597	222	1.8747331035091
9	2320935	223	1.884105168067
9	2355740	224	2.3552330606887
9	2377194	225	1.9025861064728
9	2404668	226	2.1177541213211
9	2426230	227	1.8327643103778
9	2451706	228	2.0565288504906
9	2480660	229	2.2417680412703
9	2510136	230	1.8674707020891
9	2531910	231	2.0072146071567
9	2553597	232	2.2628442401779
9	2576005	233	1.7601438708128
9	2598471	234	2.038141983627
9	2620990	235	2.0233157137119
9	2651753	236	1.897370025797
9	2674784	237	2.0100120941404
9	2697629	238	2.2105380380186
9	2720914	239	1.8580811952534
9	2748297	240	2.2677238800809
9	2771818	241	2.205852434029
9	2797378	242	2.0061687324658
9	2821487	243	1.9252849730664
9	2845572	244	2.0469721261069
9	2870394	245	2.0698305343494
9	2895146	246	1.9658883555811
9	2919825	247	2.0223060274946
9	2944952	248	1.8851178340664
9	2984649	249	2.2064066402525
9	3009612	250	1.9789459055838
9	3035043	251	1.9775833046122
9	3068835	252	0.973
9	3094133	253	0.973
9	3119512	254	2.2039078310101
9	3153095	255	6.0439799902434
8	486	6	1.7932460927567
8	701	7	1.9587017235276
8	1061	8	1.7806746143266
8	1876	9	1.8842620940111
8	2327	10	1.9413380167005
8	2841	11	0.5583961215709
8	3541	12	-0.073857417434921
8	4179	13	0.0092065779981212
8	4935	14	0.10214026641101
8	5895	15	-0.096765000070445
8	6789	16	-0.0036033386224883
8	8085	17	0.039975998615846
8	9306	18	-0.036115438612178
8	10527	19	0.074191348995083
8	12204	20	-0.018364551486448
8	13796	21	-0.84955461610103
8	15389	22	-1.1580047743662
8	17212	23	-4.4608324981877
8	19078	24	0.38092674279862
8	20943	25	1.7156944106473
8	23667	26	2.0360211738362
8	26099	27	1.9703013633797
8	28409	28	0.39196811840698
8	32358	29	-0.054819778876846
8	35873	30	0.010270397982096
8	38871	31	0.056614504742901
8	42050	32	-0.029954661100637
8	45623	33	-0.016613695521373
8	48776	34	-0.030163104203529
8	52206	35	0.018933158169965
8	55493	36	-0.029659791311714
8	58951	37	0.091685234303586
8	62551	38	-0.045763628156855
8	66107	39	-0.039857979963999
8	69840	40	0.065247988859191
8	74213	41	-0.08489584519295
8	78154	42	-0.0022564603248618
8	82513	43	0.045091817758511
8	87499	44	-0.0043246553349299
8	91803	45	0.029991914208512
8	96494	46	0.015533079409506
8	101635	47	-0.0495849183877
8	106390	48	0.0027827199501917
8	112553	49	-0.024452327373437
8	127354	50	0.067736270520836
8	137692	51	-0.053276539789513
8	146503	52	0.063070073074195
8	153406	53	-0.0090693579427903
8	160221	54	0.024193826443517
8	167643	55	-0.037865431425162
8	175263	56	-0.058954789221753
8	186007	57	0.065368110591081
8	194087	58	-0.024500538792926
8	202617	59	0.048295230567454
8	214504	60	-0.027506586005911
8	223089	61	-3.7945064249811e-05
8	234298	62	-0.040341942564119
8	245616	63	0.08445247764932
8	255604	64	-0.065610413609539
8	268504	65	0.021565600365866
8	278613	66	0.0028431761614058
8	289603	67	-0.024848260174041
8	302283	68	0.044910243332852
8	314793	69	-0.10373160347343
8	328520	70	0.072071757072118
8	344733	71	-0.0031103654555054
8	355276	72	-0.02690946418792
8	358303	73	-0.0079017184418628
8	363974	74	-0.16497366318824
8	367248	75	-1.6848926053673
8	370545	76	-4.4892687861132
8	376457	77	0.28405570139177
8	379974	78	1.997470962787
8	383497	79	2.0988350649318
8	387279	80	1.9988427420706
8	395026	81	-0.063318411561289
8	398742	82	0.04787723080255
8	402746	83	0.0012825704249551
8	410701	84	0.049021707940847
8	414700	85	-0.099405430622864
8	418978	86	0.10682315822458
8	427325	87	-0.029265006696805
8	431539	88	0.038380603131372
8	443004	89	-0.1004943326558
8	447483	90	0.024492987445557
8	451949	91	0.05169718524674
8	456705	92	-0.090917193812784
8	466531	93	0.049401447521522
8	471311	94	-0.0035681885946541
8	476386	95	0.0021494067646568
8	486797	96	0.055939720121678
8	491786	97	-0.082825279594399
8	497047	98	0.077868373056408
8	507540	99	-0.068378643156029
8	512738	100	0.044884284511209
8	518210	101	-0.036422044509091
8	526586	102	0.0091787743428728
8	532011	103	-0.013543945976998
8	538124	104	0.022761303887236
8	552033	105	0.051837298679166
8	557599	106	-0.059922826110851
8	563436	107	0.032420193073339
8	572198	108	6.4998678864114e-05
8	581256	109	-0.0037058353074837
8	587333	110	-0.041796183458063
8	599076	111	-0.020209220252001
8	605110	112	0.02716161247343
8	611447	113	-0.04625822901493
8	623440	114	0.07725084295962
8	629754	115	0.022868344553281
8	639251	116	0.003685471189673
8	648870	117	-0.062443528294096
8	655516	118	0.04799817603547
8	665672	119	0.0065934695675978
8	672689	120	-0.075014242276085
8	679715	121	0.046452402246651
8	687105	122	-0.010696762092412
8	694650	123	-0.044767391828353
8	702223	124	-0.023024488484953
8	710147	125	0.097962695134338
8	718250	126	-0.039184950522614
8	726348	127	0.011599588245154
8	734973	128	-0.054589124734047
8	747597	129	0.025782361356541
8	756133	130	0.071375757772476
8	768508	131	-0.076592239663006
8	777395	132	0.075470494809561
8	786192	133	-0.053231685482897
8	795342	134	-0.028540046415291
8	810195	135	0.0051941985101429
8	819272	136	0.068229565557559
8	828681	137	-0.048710520348978
8	843353	138	0.017288791297469
8	852798	139	-0.0082554838550273
8	862643	140	-0.00037175524979816
8	875235	141	-0.025977745337878
8	885172	142	-0.029464533214922
8	895499	143	0.070286848202812
8	908466	144	-0.074459361548069
8	918837	145	0.089626789095345
8	929646	146	-0.050767468290868
8	945578	147	0.029793044384569
8	956384	148	0.029658873495645
8	972390	149	-0.080846889601089
8	989533	150	0.064886637714226
8	1000802	151	0.027203342730646
8	1015725	152	-0.02123924333835
8	1027460	153	-0.042065148605035
8	1039261	154	0.056388453694527
8	1051466	155	-0.044616339365021
8	1066882	156	0.063685772472526
8	1080467	157	-0.058470913642086
8	1096152	158	0.03489453980932
8	1108626	159	-0.047775566366035
8	1121072	160	0.052072390380781
8	1137239	161	-0.095519099792
8	1149984	162	0.0027528130938297
8	1162749	163	0.018523060043808
8	1176078	164	0.056377461815718
8	1189399	165	-0.053878671019337
8	1202754	166	-0.024820306268522
8	1223208	167	0.068539440759924
8	1236952	168	0.0022496086521997
8	1255907	169	0.047270130538383
8	1270108	170	-0.09450829451438
8	1287775	171	-0.019489140016958
8	1302006	172	0.066708318581805
8	1316652	173	-0.025263743156103
8	1334704	174	0.049787310254761
8	1351172	175	-0.060178024864291
8	1366202	176	-0.035057701403275
8	1381457	177	0.064438513617498
8	1396606	178	-0.033552181762644
8	1412225	179	0.050035941279495
8	1434301	180	-0.03528433265863
8	1449927	181	0.012400400063488
8	1469477	182	0.050227913181299
8	1486752	183	-0.098540701419116
8	1502995	184	0.012603236748838
8	1526205	185	0.027710167313925
8	1542920	186	0.069723128527404
8	1559705	187	-0.064639785478358
8	1576931	188	-0.047288752582389
8	1602953	189	0.11094750276767
8	1620444	190	-0.080532332123257
8	1637235	191	0.012407079783733
8	1660209	192	0.033286373021546
8	1676933	193	-0.0050955741596397
8	1694103	194	-0.057795992724133
8	1717447	195	-0.011264941240661
8	1734553	196	0.062737738816068
8	1758252	197	-0.072692720012274
8	1775730	198	0.094222277051303
8	1793143	199	-0.031727886800654
8	1810945	200	-0.035088948525953
8	1835340	201	0.053654024405404
8	1853157	202	0.033026138977148
[...]
543	3783050	277	2407.200681021
543	3810369	278	2402.2972422554
543	3837669	279	2396.0230907643
543	3864973	280	2388.4976339247
543	3893101	281	2379.8601489631
543	3929213	282	2371.1015174715
543	3957960	283	2362.3442535157
543	3987089	284	2353.5723134642
543	4022675	285	2344.7933538349
543	4050578	286	2336.8826618528
543	4087376	287	2333.8732164515
543	4115645	288	2340.6226511193
543	4150227	289	2350.1063353802
543	4178554	290	2359.3925319555
543	4215133	291	2371.1806650665
543	4243305	292	2383.5504786214
543	4271944	293	2395.981706438
543	4308781	294	2408.440642583
543	4337328	295	2418.9278119343
543	4366431	296	2426.0083692175
543	4399984	297	2431.0301067132
543	4430012	298	2432.6275326004
543	4460645	299	2434.5012878202
543	4498307	300	2436.5875815563
552	3837669	279	4.0448861447153
552	3864973	280	5.0298730332532
552	3893101	281	6.3468414339048
552	3929213	282	7.5493979458
552	3957960	283	7.7489433235548
552	3987089	284	3.6238828519243
552	4022675	285	2.1208933814432
552	4050578	286	1.9466366221584
552	4087376	287	2.1139973260539
552	4115645	288	1.9745837029787
552	4150227	289	2.0521105451691
552	4178554	290	2.0736340701012
552	4215133	291	1.8566585209909
552	4243305	292	2.2422893063065
552	4271944	293	1.7250190208521
552	4308781	294	0.973
552	4337328	295	0.973
552	4366431	296	1.4232190776094
552	4399984	297	0.973
552	4430012	298	5.8150874311416
552	4460645	299	6.8119056579331
552	4498307	300	8.237102189342
551	3837669	279	1.9086223383085
551	3864973	280	1.904871757084
551	3893101	281	2.0137313255761
551	3929213	282	2.0327495707408
551	3957960	283	1.7757734687696
551	3987089	284	0.47355456381641
551	4022675	285	0.025393332622478
551	4050578	286	-0.025645719207823
551	4087376	287	0.023416053464171
551	4115645	288	-0.017499935424421
551	4150227	289	0.0053992035635755
551	4178554	290	0.011442985057364
551	4215133	291	-0.051656686835921
551	4243305	292	0.061226883444469
551	4271944	293	-0.09022717691958
551	4308781	294	-2.6840829989
551	4337328	295	-1.7409345527401
551	4366431	296	-0.094961541690317
551	4399984	297	-2.3345118849536
551	4430012	298	1.9446911733667
551	4460645	299	1.9252061667759
551	4498307	300	2.0242806060403
550	3810369	278	3.8318498705856
550	3837669	279	5.7404722088941
550	3864973	280	7.6453439659781
550	3893101	281	9.6590752915542
550	3929213	282	11.691824862295
550	3957960	283	13.467598331065
550	3987089	284	13.941152894881
550	4022675	285	13.966546227504
550	4050578	286	13.940900508296
550	4087376	287	13.96431656176
550	4115645	288	13.946816626335
550	4150227	289	13.952215829899
550	4178554	290	13.963658814956
550	4215133	291	13.912002128121
550	4243305	292	13.973229011565
550	4271944	293	13.883001834645
550	4308781	294	11.198918835745
550	4337328	295	9.4579842830053
550	4366431	296	9.363022741315
550	4399984	297	7.0285108563614
550	4430012	298	8.9732020297281
550	4460645	299	10.898408196504
550	4498307	300	12.922688802544
549	3783050	277	1578.4444627929
549	3810369	278	1578.4444627929
549	3837669	279	1579.4586632065
549	3864973	280	1581.1526757451
549	3893101	281	1585.9860591488
549	3929213	282	1592.212502352
549	3957960	283	1599.864562206
549	3987089	284	1608.8977915002
549	4022675	285	1618.8034283426
549	4050578	286	1628.7218271224
549	4087376	287	1638.6330375159
549	4115645	288	1648.7701009437
549	4150227	289	1660.6081024464
549	4178554	290	1673.291516196
549	4215133	291	1682.206510162
549	4243305	292	1691.5372401169
549	4271944	293	1695.5088746147
549	4308781	294	1697.3307241667
549	4337328	295	1698.563086981
549	4366431	296	1699.4887619438
549	4399984	297	1700.4043588573
549	4430012	298	1701.0082975896
549	4460645	299	1704.6842867667
549	4498307	300	1714.6408269275
548	3783050	277	2414.8936584366
548	3810369	278	2414.8936584366
548	3837669	279	2412.1316354822
548	3864973	280	2407.5576122131
548	3893101	281	2402.7856074541
548	3929213	282	2396.6382332202
548	3957960	283	2389.0833460964
548	3987089	284	2380.1648288642
548	4022675	285	2370.3849826972
548	4050578	286	2360.5925366554
548	4087376	287	2350.8071877159
548	4115645	288	2341.2688877129
548	4150227	289	2334.6346149595
548	4178554	290	2337.3339200548
548	4215133	291	2348.0437296906
548	4243305	292	2358.3902264796
548	4271944	293	2371.2718431309
548	4308781	294	2385.0877807249
548	4337328	295	2397.7528545959
548	4366431	296	2407.5424853598
548	4399984	297	2417.2255340228
548	4430012	298	2424.5382929827
548	4460645	299	2430.7387905195
548	4498307	300	2432.2518255988
556	3911684	281.636812433154	1
556	3912235	281.639996433154	2
556	3912718	281.646377433154	3
556	3913073	281.649561433154	4
556	3913710	281.655942433154	5
556	3913951	281.659152433154	6
556	3914192	281.662323433154	7
556	3914433	281.665507433154	8
556	3915362	281.675072433154	9
556	3915604	281.678256433154	10
556	3915845	281.681466433154	11
556	3916809	281.694241433154	12
556	3919454	281.719830433154	13
558	3929213	282	3.9048085235181
558	3957960	283	5.1934554494041
558	3987089	284	6.7589632619464
558	4022675	285	7.8239933625546
558	4050578	286	8.32713156869
558	4087376	287	1.9934735714024
558	4115645	288	2.2791417065564
558	4150227	289	2.1031576613661
558	4178554	290	1.8256194285247
558	4215133	291	2.2890312931561
558	4243305	292	2.0915495395642
558	4271944	293	1.6310056988945
558	4308781	294	2.0768268781872
558	4337328	295	2.1301110493383
558	4366431	296	2.2704246159701
558	4399984	297	0.973
558	4430012	298	1.7854079475428
558	4460645	299	0.973
558	4498307	300	2.4466621330796
557	3929213	282	1.7651942137699
557	3957960	283	1.9465648654359
557	3987089	284	2.1224548329436
557	4022675	285	2.06679885383
557	4050578	286	1.8834341964335
557	4087376	287	-0.0096319455665483
557	4115645	288	0.073206886670087
557	4150227	289	0.020195494447835
557	4178554	290	-0.060696045181249
557	4215133	291	0.074917549113742
557	4243305	292	0.015798848590348
557	4271944	293	-0.11817624552408
557	4308781	294	0.014675775608048
557	4337328	295	0.029628066499717
557	4366431	296	0.069007897858974
557	4399984	297	-2.5240722303008
557	4430012	298	-0.0059424363362286
557	4460645	299	-3.6613401258495
557	4498307	300	0.44649933202626
555	3893101	281	4.0960880163999
555	3929213	282	5.8612822301698
555	3957960	283	7.8078470956057
555	3987089	284	9.9303019285494
555	4022675	285	11.997100782379
555	4050578	286	13.880534978813
555	4087376	287	13.870903033246
555	4115645	288	13.944109919916
555	4150227	289	13.964305414364
555	4178554	290	13.903609369183
555	4215133	291	13.978526918297
555	4243305	292	13.994325766887
555	4271944	293	13.876149521363
555	4308781	294	13.890825296971
555	4337328	295	13.920453363471
555	4366431	296	13.98946126133
555	4399984	297	11.465389031029
555	4430012	298	11.459446594693
555	4460645	299	7.7981064688433
555	4498307	300	8.2446058008695
554	3864973	280	1578.459494709
554	3893101	281	1578.459494709
554	3929213	282	1579.5485613849
554	3957960	283	1581.4674389958
554	3987089	284	1586.3422770025
554	4022675	285	1592.7407039283
554	4050578	286	1600.6291636005
554	4087376	287	1609.8797672438
554	4115645	288	1619.7981994236
554	4150227	289	1629.7248288672
554	4178554	290	1639.6503528561
554	4215133	291	1649.9008181002
554	4243305	292	1662.0156580387
554	4271944	293	1674.1908668801
554	4308781	294	1683.1538286339
554	4337328	295	1692.4987518843
554	4366431	296	1695.7223362401
554	4399984	297	1697.5028730864
554	4430012	298	1698.6791002713
554	4460645	299	1699.7594698798
554	4498307	300	1700.6797058387
553	3864973	280	2414.852721264
553	3893101	281	2414.852721264
553	3929213	282	2411.8868112558
553	3957960	283	2407.2468461086
553	3987089	284	2402.4339131744
553	4022675	285	2396.1167392221
553	4050578	286	2388.3284542977
553	4087376	287	2379.19532313
553	4115645	288	2369.4028441132
553	4150227	289	2359.6022719286
553	4178554	290	2349.8027911601
553	4215133	291	2340.3856223354
553	4243305	292	2334.4008944521
553	4271944	293	2338.4475840935
553	4308781	294	2349.0941756449
553	4337328	295	2359.4564108468
553	4366431	296	2372.6999817836
553	4399984	297	2386.540384806
553	4430012	298	2398.9797725989
553	4460645	299	2410.4054025288
553	4498307	300	2420.137512192
562	3997786	284.398754236442	1
562	3998347	284.401951236442	2
562	3998807	284.405423412146	3
562	3999031	284.408620412146	4
562	3999496	284.411830412146	5
562	3999722	284.415027412146	6
562	3999946	284.418224412146	7
562	4000170	284.421421412146	8
562	4000394	284.424605412146	9
562	4000618	284.427802412146	10
562	4001254	284.430973412146	11
562	4001602	284.434157412146	12
562	4002209	284.437603614228	13
562	4002613	284.440787614228	14
562	4002837	284.443997614228	15
564	4022675	285	4.3201709660184
564	4050578	286	5.3858474926056
564	4087376	287	6.783291600751
564	4115645	288	6.6219122727993
564	4150227	289	9.0366530754513
564	4178554	290	2.145305448355
564	4215133	291	1.7487301440279
564	4243305	292	2.2424173222072
564	4271944	293	1.8549016441844
564	4308781	294	1.9693474191376
564	4337328	295	2.1010477326255
564	4366431	296	1.9692952997529
564	4399984	297	2.0616720214477
564	4430012	298	2.2860114865459
564	4460645	299	1.7470761661992
564	4498307	300	0.973
563	4022675	285	1.959372084816
563	4050578	286	1.9667331097089
563	4087376	287	2.0751131499209
563	4115645	288	1.6767625445686
563	4150227	289	2.0862187484186
563	4178554	290	0.032703701960299
563	4215133	291	-0.083108002084773
563	4243305	292	0.06228397143539
563	4271944	293	-0.051655728188342
563	4308781	294	-0.016978086510209
563	4337328	295	0.021712345301641
563	4366431	296	-0.017127338421997
563	4399984	297	0.01017191685969
563	4430012	298	0.07451842307113
563	4460645	299	-0.083586296066642
563	4498307	300	-1.3931876531424
561	3987089	284	4.1678804038517
561	4022675	285	6.1272524886677
561	4050578	286	8.0939855983766
561	4087376	287	10.169098748298
561	4115645	288	11.845861292866
561	4150227	289	13.932080041285
561	4178554	290	13.964783743245
561	4215133	291	13.88167574116
561	4243305	292	13.943959712596
561	4271944	293	13.892303984407
561	4308781	294	13.875325897897
561	4337328	295	13.897038243199
561	4366431	296	13.879910904777
561	4399984	297	13.890082821636
561	4430012	298	13.964601244708
561	4460645	299	13.881014948641
561	4498307	300	12.487827295499
560	3957960	283	1578.4604024226
560	3987089	284	1578.4604024226
560	4022675	285	1579.5971959932
560	4050578	286	1581.6822873615
560	4087376	287	1586.8085757168
560	4115645	288	1593.4031085884
560	4150227	289	1601.3316601776
560	4178554	290	1610.5926699759
560	4215133	291	1620.4975385973
560	4243305	292	1630.4117936902
560	4271944	293	1640.3421529457
560	4308781	294	1650.6538694641
560	4337328	295	1662.9626187822
560	4366431	296	1674.7927121343
560	4399984	297	1683.8087722566
560	4430012	298	1693.1381361866
560	4460645	299	1695.8630457269
560	4498307	300	1697.5894914176
559	3957960	283	2414.8502492411
559	3987089	284	2414.8502492411
559	4022675	285	2411.7543621832
559	4050578	286	2407.0347260807
559	4087376	287	2401.9735359403
559	4115645	288	2395.4627463716
559	4150227	289	2387.6348786533
559	4178554	290	2378.4914734778
559	4215133	291	2368.7123857766
559	4243305	292	2358.924030802
559	4271944	293	2349.1197761695
559	4308781	294	2339.7973724859
559	4337328	295	2334.2436543783
559	4366431	296	2339.1928477915
559	4399984	297	2349.8204180847
559	4430012	298	2360.1654001392
559	4460645	299	2373.641381238
559	4498307	300	2387.4564314937
567	4070255	286.704614653274	1
567	4070977	286.710970462552	2
567	4071221	286.714141462552	3
567	4071465	286.717351462552	4
567	4071941	286.720548462552	5
567	4072186	286.723732462552	6
567	4072430	286.726903462552	7
567	4073001	286.730074462552	8
567	4073245	286.733271462552	9
567	4073490	286.736442462552	10
567	4073734	286.739626462552	11
567	4074658	286.742797462552	12
567	4074902	286.745968462552	13
567	4075395	286.752324379132	14
567	4075639	286.755521379132	15
570	4115645	288	4.0702125860217
570	4150227	289	5.6007790287442
570	4178554	290	6.4322936906201
570	4215133	291	8.1203151038995
570	4243305	292	8.2470833883172
570	4271944	293	2.076806474249
570	4308781	294	1.7360668761892
570	4337328	295	2.2334962217182
570	4366431	296	2.2009997177895
570	4399984	297	1.7693960082878
570	4430012	298	1.9399011315011
570	4460645	299	2.3133397386962
570	4498307	300	1.8847100106289
569	4115645	288	1.8714986755815
569	4150227	289	2.1055114513705
569	4178554	290	1.9761356175411
569	4215133	291	2.1441741232644
569	4243305	292	1.8460129410693
569	4271944	293	0.01202801330248
569	4308781	294	-0.087046954864636
569	4337328	295	0.059504628484136
569	4366431	296	0.048202806522605
569	4399984	297	-0.077830457291567
569	4430012	298	-0.026250096987932
569	4460645	299	0.082298331493512
569	4498307	300	-0.043785889046267
568	4087376	287	4.019737268876
568	4115645	288	5.8912359444575
568	4150227	289	7.996747395828
568	4178554	290	9.9728830133692
568	4215133	291	12.117057136634
568	4243305	292	13.963070077703
568	4271944	293	13.975098091005
568	4308781	294	13.888051136141
568	4337328	295	13.947555764625
568	4366431	296	13.995758571147
568	4399984	297	13.917928113856
568	4430012	298	13.891678016868
568	4460645	299	13.973976348361
568	4498307	300	13.930190459315
566	4050578	286	1578.4546366762
566	4087376	287	1578.4546366762
566	4115645	288	1579.5377001492
566	4150227	289	1581.423493946
566	4178554	290	1586.4687040551
566	4215133	291	1592.9124956205
566	4243305	292	1600.8985820012
566	4271944	293	1610.2992483638
566	4308781	294	1620.2061476754
566	4337328	295	1630.1109080417
566	4366431	296	1640.0282778675
566	4399984	297	1650.3409885233
566	4430012	298	1662.591088634
566	4460645	299	1674.5477327453
566	4498307	300	1683.552645593
565	4050578	286	2414.865951389
565	4087376	287	2414.865951389
565	4115645	288	2411.9163902046
565	4150227	289	2407.2902331047
565	4178554	290	2402.3090916057
565	4215133	291	2395.947129095
565	4243305	292	2388.0624572139
565	4271944	293	2378.7811689579
565	4308781	294	2369.0000763549
565	4337328	295	2359.2210955337
565	4366431	296	2349.4296653802
565	4399984	297	2340.0417810021
565	4430012	298	2334.3053458774
565	4460645	299	2338.889490335
565	4498307	300	2349.5364088258
575	4182268	290.141332972333	1
575	4183257	290.147701111915	2
575	4183504	290.150885111915	3
575	4183750	290.154095111915	4
575	4184319	290.157305111915	5
575	4184565	290.160502111915	6
575	4184811	290.163686111915	7
575	4185057	290.166896111915	8
575	4185303	290.170080111915	9
575	4185549	290.173264111915	10
575	4186058	290.176435111915	11
575	4186304	290.179645111915	12
575	4186550	290.182816111915	13
575	4187069	290.186013111915	14
575	4187315	290.189197111915	15
577	4215133	291	4.1929421916268
577	4243305	292	4.9952903627684
577	4271944	293	5.8892107173673
577	4308781	294	6.8438446167788
577	4337328	295	8.0585657827734
577	4366431	296	4.0674810092823
577	4399984	297	2.0245834786145
577	4430012	298	2.2606431824085
577	4460645	299	1.982048320554
577	4498307	300	1.847157421321
576	4215133	291	1.9838184957369
576	4243305	292	1.8722308088909
576	4271944	293	1.8439105376694
576	4308781	294	1.8409201143053
576	4337328	295	1.9028807467036
576	4366431	296	0.60923520933041
576	4399984	297	-0.00093275353079747
576	4430012	298	0.067208600770682
576	4460645	299	-0.01516603966942
576	4498307	300	-0.053883195628877
574	4178554	290	3.8388518026201
574	4215133	291	5.8226702983571
574	4243305	292	7.694901107248
574	4271944	293	9.5388116449174
574	4308781	294	11.379731759223
574	4337328	295	13.282612505926
574	4366431	296	13.891847715257
574	4399984	297	13.890914961726
574	4430012	298	13.958123562497
574	4460645	299	13.942957522827
574	4498307	300	13.889074327198
573	4150227	289	1578.4501214568
573	4178554	290	1578.4501214568
573	4215133	291	1579.5038686898
573	4243305	292	1581.2339854557
573	4271944	293	1586.0843246905
573	4308781	294	1592.2608845904
573	4337328	295	1599.7766582156
573	4366431	296	1608.6011314141
573	4399984	297	1618.4546667794
573	4430012	298	1628.3745841663
573	4460645	299	1638.3006559843
573	4498307	300	1648.4003381785
572	4150227	289	2414.8782479123
572	4178554	290	2414.8782479123
572	4215133	291	2412.0085251181
572	4243305	292	2407.4773350458
572	4271944	293	2402.6885897759
572	4308781	294	2396.5904653833
572	4337328	295	2389.1701338032
572	4366431	296	2380.4577216933
572	4399984	297	2370.7293153725
572	4430012	298	2360.935370009
572	4460645	299	2351.1353483681
572	4498307	300	2341.5577297515
581	4279990	293.302856601802	1
581	4280826	293.309211995358	2
581	4281065	293.312382995358	3
581	4281304	293.315553995358	4
581	4281543	293.318763995358	5
581	4281784	293.321960995358	6
581	4282137	293.325157995358	7
581	4282500	293.328354995358	8
581	4282741	293.331525995358	9
581	4283242	293.334998586614	10
581	4283481	293.338182586614	11
581	4283720	293.341392586614	12
581	4284276	293.344563586614	13
581	4284764	293.347747586614	14
581	4285003	293.350931586614	15
583	4308781	294	4.0238022827422
583	4337328	295	5.3240284088958
583	4366431	296	6.0716942638026
583	4399984	297	6.996266194297
583	4430012	298	8.3020874001692
583	4460645	299	3.0873597570208
583	4498307	300	2.2562357133232
582	4308781	294	1.8011175345886
582	4337328	295	1.9695445762528
582	4366431	296	1.8577861681115
582	4399984	297	1.840886382726
582	4430012	298	1.9245047028037
582	4460645	299	0.31560659859574
582	4498307	300	0.065352965763305
580	4271944	293	4.1988672093417
580	4308781	294	5.9999847439303
580	4337328	295	7.9695293201831
580	4366431	296	9.8273154882946
580	4399984	297	11.668201871021
580	4430012	298	13.592706573824
580	4460645	299	13.90831317242
580	4498307	300	13.973666138183
579	4243305	292	1578.4503983269
579	4271944	293	1578.4503983269
579	4308781	294	1579.5873470968
579	4337328	295	1581.6114479871
579	4366431	296	1586.6332778865
579	4399984	297	1593.0465930086
579	4430012	298	1600.7628815994
579	4460645	299	1609.8313500239
579	4498307	300	1619.7386781415
578	4243305	292	2414.8774938987
578	4271944	293	2414.8774938987
578	4308781	294	2411.7811841763
578	4337328	295	2407.1046658731
578	4366431	296	2402.1466076813
578	4399984	297	2395.8147345965
578	4430012	298	2388.1964343707
578	4460645	299	2379.2431255053
578	4498307	300	2369.4616095402
587	4376273	296.341760021907	1
587	4376523	296.344944021907	2
587	4377017	296.348141021907	3
587	4377267	296.351325021907	4
587	4377966	296.354535021907	5
587	4378216	296.357732021907	6
587	4378466	296.360942021907	7
587	4378716	296.364139021907	8
587	4379335	296.367323021907	9
587	4379585	296.370507021907	10
587	4379836	296.373678021907	11
587	4380086	296.376849021907	12
587	4380558	296.380046021907	13
587	4380808	296.383217021907	14
587	4439661	298.341719371732	15
589	4399984	297	4.1052569192997
589	4430012	298	5.2853638361616
589	4460645	299	6.7893206317926
589	4498307	300	6.9409430754397
588	4399984	297	1.8603028618451
588	4430012	298	1.9555933920806
588	4460645	299	2.1053005864355
588	4498307	300	1.7892224123236
586	4366431	296	4.1315341364683
586	4399984	297	5.9918369983134
586	4430012	298	7.947430390394
586	4460645	299	10.05273097683
586	4498307	300	11.841953389153
585	4337328	295	1578.4660588931
585	4366431	296	1578.4660588931
585	4399984	297	1579.5641769432
585	4430012	298	1581.5500021204
585	4460645	299	1586.5911606317
585	4498307	300	1593.0457936423
584	4337328	295	2414.8348446911
584	4366431	296	2414.8348446911
584	4399984	297	2411.8442846215
584	4430012	298	2407.1653314445
584	4460645	299	2402.1881900934
584	4498307	300	2395.8155238112
593	4474339	299.498585365707	1
593	4474592	299.501756365707	2
593	4475474	299.508126020421	3
593	4475728	299.511310020421	4
593	4476307	299.514520020421	5
593	4476560	299.517717020421	6
593	4477089	299.520888020421	7
593	4477344	299.524085020421	8
593	4477598	299.527269020421	9
593	4478129	299.530716805063	10
593	4478382	299.533900805063	11
593	4479045	299.537084805063	12
593	4479517	299.540268805063	13
593	4479770	299.543465805063	14
593	4480023	299.546675805063	15
595	4498307	300	4.6903570008639
594	4498307	300	2.2240633611637
592	4460645	299	3.8684168658379
592	4498307	300	6.0924802270016
591	4430012	298	1578.446638328
591	4460645	299	1578.446638328
591	4498307	300	1579.5005191956
590	4430012	298	2414.887733691
590	4460645	299	2414.887733691
590	4498307	300	2412.0176469652

