version 2
run SCRLE-0-20200623-01:35:40-6236
attr configname SCRLE
attr datetime 20200623-01:35:40
attr experiment SCRLE
attr inifile omnetpp.ini
attr iterationvars ""
attr iterationvarsf ""
attr measurement ""
attr network ned.Network
attr processid 6236
attr repetition 0
attr replication #0
attr resultdir results
attr runnumber 0
attr seedset 0
param **.**.applType "\"SCRLE\""
param *.V[*].appl.speed 22mps
param *.V[*].appl.plist_Interval 0.5s
param *.V[*].appl.beacon_Interval 1s
param *.V[*].appl.message_Lost 0
param *.playgroundSizeX 25000m
param *.playgroundSizeY 25000m
param *.playgroundSizeZ 50m
param *.annotations.draw true
param *.obstacles.obstacles "xmldoc(\"sumo/config.xml\", \"//AnalogueModel[@type='SimpleObstacleShadowing']/obstacles\")"
param Network.manager.updateInterval 1s
param Network.manager.host "\"localhost\""
param Network.manager.port 9999
param Network.manager.moduleType "\"ned.VNode\""
param Network.manager.moduleName "\"V\""
param Network.manager.moduleDisplayString "\"\""
param Network.manager.autoShutdown true
param Network.manager.margin 25
param Network.manager.launchConfig "xmldoc(\"sumo/erlangen.launchd.xml\")"
param *.connectionManager.sendDirect true
param *.connectionManager.maxInterfDist 2600m
param *.connectionManager.drawMaxIntfDist false
param *.**.nic.mac1609_4.useServiceChannel false
param *.**.nic.mac1609_4.txPower 20mW
param *.**.nic.mac1609_4.bitrate 6Mbps
param *.**.nic.phy80211p.minPowerLevel -110dBm
param *.**.nic.phy80211p.useNoiseFloor true
param *.**.nic.phy80211p.noiseFloor -98dBm
param *.**.nic.phy80211p.decider "xmldoc(\"sumo/config.xml\")"
param *.**.nic.phy80211p.analogueModels "xmldoc(\"sumo/config.xml\")"
param *.**.nic.phy80211p.usePropagationDelay true
param *.**.nic.phy80211p.antenna "xmldoc(\"sumo/antenna.xml\", \"/root/Antenna[@id='monopole']\")"
param Network.numCA 1
param Network.numRSU 1
param Network.numV 0
param **.applType "\"VAppl\""
param **.appl.headerLength "18400 bit"
param Network.CA[*].appl.InitialWait 0
param Network.CA[*].appl.CRLsize 1000
param Network.CA[*].appl.EnableShuffle true
param Network.CA[*].appl.NoSegments 20
param Network.CA[*].appl.Pseudonym_lifeTime 120s
param Network.RSU[*].appl.beacon_Interval 1s
param Network.RSU[*].appl.CRL_Interval 20s
param Network.RSU[*].appl.I2V_tho 0s
param Network.RSU[*].appl.I2V_EnableMultiChannel false
param Network.V[*].appl.speed 22mps
param Network.V[*].appl.beacon_Interval 4s
param Network.V[*].appl.V2V_tho 0s
param Network.V[*].appl.V2V_Wait_Beacon 0.03s
param Network.V[*].appl.V2V_EnableMultiChannel false
param Network.V[*].appl.V2V_Wait_CRL 0.1s
param Network.V[*].appl.MagicCarsRatio 0
param Network.V[*].appl.MagicReqTime intuniform(0,60)
param Network.V[*].appl.CRLrecons false
param Network.V[*].appl.CompromisedEnable false
param Network.V[*].appl.CompromisedMsgSendTime 0s
param Network.CA[0].mobility.x 1100
param Network.CA[0].mobility.y 50
param Network.CA[0].mobility.z 0
param Network.RSU[0].mobility.x 2000
param Network.RSU[1].mobility.x 860
param Network.RSU[2].mobility.x 1360
param Network.RSU[3].mobility.x 1860
param Network.RSU[*].mobility.y 2000
param Network.RSU[*].mobility.z 3
param *.V[*].veinsmobility.x 0
param *.V[*].veinsmobility.y 0
param *.V[*].veinsmobility.z 0
param *.V[*].veinsmobility.setHostSpeed false

scalar Network.V[0].appl "Duplicate Messages" 10
scalar Network.V[0].appl "Original Messages" 20
scalar Network.V[0].appl "Plist Message" 621
scalar Network.V[0].appl "Full CRL Recieved Time" 68.503352520226
scalar Network.V[0].nic.phy80211p busyTime 0.02480238095238
scalar Network.V[0].nic.mac1609_4 ReceivedUnicastPackets 625
scalar Network.V[0].nic.mac1609_4 ReceivedBroadcasts 2471
scalar Network.V[0].nic.mac1609_4 SentPackets 948
scalar Network.V[0].nic.mac1609_4 SentAcknowledgements 0
scalar Network.V[0].nic.mac1609_4 SNIRLostPackets 1237
scalar Network.V[0].nic.mac1609_4 RXTXLostPackets 31
scalar Network.V[0].nic.mac1609_4 TotalLostPackets 1268
scalar Network.V[0].nic.mac1609_4 DroppedPacketsInMac 0
scalar Network.V[0].nic.mac1609_4 TooLittleTime 0
scalar Network.V[0].nic.mac1609_4 TimesIntoBackoff 949
scalar Network.V[0].nic.mac1609_4 SlotsBackoff 1408
scalar Network.V[0].nic.mac1609_4 NumInternalContention 0
scalar Network.V[0].nic.mac1609_4 totalBusyTime 8.354228
scalar Network.V[0].veinsmobility startTime 1
scalar Network.V[0].veinsmobility totalTime 251
scalar Network.V[0].veinsmobility stopTime 253
scalar Network.V[0].veinsmobility minSpeed 4.1061966058897
scalar Network.V[0].veinsmobility maxSpeed 13.999815066161
scalar Network.V[0].veinsmobility totalDistance 3398.3983560101
scalar Network.V[0].veinsmobility totalCO2Emission 569.2819316364
scalar Network.V[1].appl "Duplicate Messages" 10
scalar Network.V[1].appl "Original Messages" 20
scalar Network.V[1].appl "Plist Message" 144
scalar Network.V[1].appl "Full CRL Recieved Time" 68.503352661028
scalar Network.V[1].nic.phy80211p busyTime 0.034517333333332
scalar Network.V[1].nic.mac1609_4 ReceivedUnicastPackets 149
scalar Network.V[1].nic.mac1609_4 ReceivedBroadcasts 2754
scalar Network.V[1].nic.mac1609_4 SentPackets 498
scalar Network.V[1].nic.mac1609_4 SentAcknowledgements 0
scalar Network.V[1].nic.mac1609_4 SNIRLostPackets 1221
scalar Network.V[1].nic.mac1609_4 RXTXLostPackets 11
scalar Network.V[1].nic.mac1609_4 TotalLostPackets 1232
scalar Network.V[1].nic.mac1609_4 DroppedPacketsInMac 0
scalar Network.V[1].nic.mac1609_4 TooLittleTime 0
scalar Network.V[1].nic.mac1609_4 TimesIntoBackoff 501
scalar Network.V[1].nic.mac1609_4 SlotsBackoff 754
scalar Network.V[1].nic.mac1609_4 NumInternalContention 0
scalar Network.V[1].nic.mac1609_4 totalBusyTime 9.23060209722
scalar Network.V[1].veinsmobility startTime 4
scalar Network.V[1].veinsmobility totalTime 251
scalar Network.V[1].veinsmobility stopTime 256
scalar Network.V[1].veinsmobility minSpeed 4.0332649588119
scalar Network.V[1].veinsmobility maxSpeed 13.99953793895
scalar Network.V[1].veinsmobility totalDistance 3395.2521572909
scalar Network.V[1].veinsmobility totalCO2Emission 559.88617340763
scalar Network.V[2].appl "Duplicate Messages" 10
scalar Network.V[2].appl "Original Messages" 20
scalar Network.V[2].appl "Plist Message" 199
scalar Network.V[2].appl "Full CRL Recieved Time" 68.503352783069
scalar Network.V[2].nic.phy80211p busyTime 0.036497206349204
scalar Network.V[2].nic.mac1609_4 ReceivedUnicastPackets 207
scalar Network.V[2].nic.mac1609_4 ReceivedBroadcasts 2972
scalar Network.V[2].nic.mac1609_4 SentPackets 456
scalar Network.V[2].nic.mac1609_4 SentAcknowledgements 0
scalar Network.V[2].nic.mac1609_4 SNIRLostPackets 1299
scalar Network.V[2].nic.mac1609_4 RXTXLostPackets 12
scalar Network.V[2].nic.mac1609_4 TotalLostPackets 1311
scalar Network.V[2].nic.mac1609_4 DroppedPacketsInMac 0
scalar Network.V[2].nic.mac1609_4 TooLittleTime 0
scalar Network.V[2].nic.mac1609_4 TimesIntoBackoff 457
scalar Network.V[2].nic.mac1609_4 SlotsBackoff 683
scalar Network.V[2].nic.mac1609_4 NumInternalContention 0
scalar Network.V[2].nic.mac1609_4 totalBusyTime 9.563904000868
scalar Network.V[2].veinsmobility startTime 7
scalar Network.V[2].veinsmobility totalTime 251
scalar Network.V[2].veinsmobility stopTime 259
scalar Network.V[2].veinsmobility minSpeed 3.930963162637
scalar Network.V[2].veinsmobility maxSpeed 13.999956833255
scalar Network.V[2].veinsmobility totalDistance 3396.6418378074
scalar Network.V[2].veinsmobility totalCO2Emission 560.47776315999
scalar Network.V[3].appl "Duplicate Messages" 10
scalar Network.V[3].appl "Original Messages" 20
scalar Network.V[3].appl "Plist Message" 105
scalar Network.V[3].appl "Full CRL Recieved Time" 68.5033529094
scalar Network.V[3].nic.phy80211p busyTime 0.036548539682538
scalar Network.V[3].nic.mac1609_4 ReceivedUnicastPackets 116
scalar Network.V[3].nic.mac1609_4 ReceivedBroadcasts 3242
scalar Network.V[3].nic.mac1609_4 SentPackets 434
scalar Network.V[3].nic.mac1609_4 SentAcknowledgements 0
scalar Network.V[3].nic.mac1609_4 SNIRLostPackets 1280
scalar Network.V[3].nic.mac1609_4 RXTXLostPackets 5
scalar Network.V[3].nic.mac1609_4 TotalLostPackets 1285
scalar Network.V[3].nic.mac1609_4 DroppedPacketsInMac 0
scalar Network.V[3].nic.mac1609_4 TooLittleTime 0
scalar Network.V[3].nic.mac1609_4 TimesIntoBackoff 435
scalar Network.V[3].nic.mac1609_4 SlotsBackoff 647
scalar Network.V[3].nic.mac1609_4 NumInternalContention 0
scalar Network.V[3].nic.mac1609_4 totalBusyTime 9.480346
scalar Network.V[3].veinsmobility startTime 10
scalar Network.V[3].veinsmobility totalTime 251
scalar Network.V[3].veinsmobility stopTime 262
scalar Network.V[3].veinsmobility minSpeed 4.0076977833542
scalar Network.V[3].veinsmobility maxSpeed 13.999869057706
scalar Network.V[3].veinsmobility totalDistance 3396.8379006329
scalar Network.V[3].veinsmobility totalCO2Emission 563.70815367544
scalar Network.V[4].appl "Duplicate Messages" 10
scalar Network.V[4].appl "Original Messages" 20
scalar Network.V[4].appl "Plist Message" 109
scalar Network.V[4].appl "Full CRL Recieved Time" 68.503353121496
scalar Network.V[4].nic.phy80211p busyTime 0.038144775193796
scalar Network.V[4].nic.mac1609_4 ReceivedUnicastPackets 120
scalar Network.V[4].nic.mac1609_4 ReceivedBroadcasts 3557
scalar Network.V[4].nic.mac1609_4 SentPackets 376
scalar Network.V[4].nic.mac1609_4 SentAcknowledgements 0
scalar Network.V[4].nic.mac1609_4 SNIRLostPackets 1537
scalar Network.V[4].nic.mac1609_4 RXTXLostPackets 1
scalar Network.V[4].nic.mac1609_4 TotalLostPackets 1538
scalar Network.V[4].nic.mac1609_4 DroppedPacketsInMac 0
scalar Network.V[4].nic.mac1609_4 TooLittleTime 0
scalar Network.V[4].nic.mac1609_4 TimesIntoBackoff 376
scalar Network.V[4].nic.mac1609_4 SlotsBackoff 538
scalar Network.V[4].nic.mac1609_4 NumInternalContention 0
scalar Network.V[4].nic.mac1609_4 totalBusyTime 9.834224
scalar Network.V[4].veinsmobility startTime 13
scalar Network.V[4].veinsmobility totalTime 257
scalar Network.V[4].veinsmobility stopTime 271
scalar Network.V[4].veinsmobility minSpeed 4.1202440707026
scalar Network.V[4].veinsmobility maxSpeed 13.999806407762
scalar Network.V[4].veinsmobility totalDistance 3395.027339265
scalar Network.V[4].veinsmobility totalCO2Emission 562.99043882825
scalar Network.V[5].appl "Duplicate Messages" 26
scalar Network.V[5].appl "Original Messages" 20
scalar Network.V[5].appl "Plist Message" 60
scalar Network.V[5].appl "Full CRL Recieved Time" 88.503096020535
scalar Network.V[5].nic.phy80211p busyTime 0.03857954863813
scalar Network.V[5].nic.mac1609_4 ReceivedUnicastPackets 71
scalar Network.V[5].nic.mac1609_4 ReceivedBroadcasts 3616
scalar Network.V[5].nic.mac1609_4 SentPackets 339
scalar Network.V[5].nic.mac1609_4 SentAcknowledgements 0
scalar Network.V[5].nic.mac1609_4 SNIRLostPackets 1626
scalar Network.V[5].nic.mac1609_4 RXTXLostPackets 14
scalar Network.V[5].nic.mac1609_4 TotalLostPackets 1640
scalar Network.V[5].nic.mac1609_4 DroppedPacketsInMac 0
scalar Network.V[5].nic.mac1609_4 TooLittleTime 0
scalar Network.V[5].nic.mac1609_4 TimesIntoBackoff 357
scalar Network.V[5].nic.mac1609_4 SlotsBackoff 573
scalar Network.V[5].nic.mac1609_4 NumInternalContention 0
scalar Network.V[5].nic.mac1609_4 totalBusyTime 9.813555
scalar Network.V[5].veinsmobility startTime 16
scalar Network.V[5].veinsmobility totalTime 256
scalar Network.V[5].veinsmobility stopTime 273
scalar Network.V[5].veinsmobility minSpeed 4.11254450365
scalar Network.V[5].veinsmobility maxSpeed 13.998108282317
scalar Network.V[5].veinsmobility totalDistance 3397.8848373625
scalar Network.V[5].veinsmobility totalCO2Emission 564.84977961516
scalar Network.V[6].appl "Duplicate Messages" 15
scalar Network.V[6].appl "Original Messages" 20
scalar Network.V[6].appl "Plist Message" 66
scalar Network.V[6].appl "Full CRL Recieved Time" 88.493531147128
scalar Network.V[6].nic.phy80211p busyTime 0.039707406249998
scalar Network.V[6].nic.mac1609_4 ReceivedUnicastPackets 84
scalar Network.V[6].nic.mac1609_4 ReceivedBroadcasts 3708
scalar Network.V[6].nic.mac1609_4 SentPackets 342
scalar Network.V[6].nic.mac1609_4 SentAcknowledgements 0
scalar Network.V[6].nic.mac1609_4 SNIRLostPackets 1803
scalar Network.V[6].nic.mac1609_4 RXTXLostPackets 19
scalar Network.V[6].nic.mac1609_4 TotalLostPackets 1822
scalar Network.V[6].nic.mac1609_4 DroppedPacketsInMac 0
scalar Network.V[6].nic.mac1609_4 TooLittleTime 0
scalar Network.V[6].nic.mac1609_4 TimesIntoBackoff 400
scalar Network.V[6].nic.mac1609_4 SlotsBackoff 570
scalar Network.V[6].nic.mac1609_4 NumInternalContention 0
scalar Network.V[6].nic.mac1609_4 totalBusyTime 9.990838
scalar Network.V[6].veinsmobility startTime 19
scalar Network.V[6].veinsmobility totalTime 255
scalar Network.V[6].veinsmobility stopTime 275
scalar Network.V[6].veinsmobility minSpeed 4.067372106413
scalar Network.V[6].veinsmobility maxSpeed 13.999156328384
scalar Network.V[6].veinsmobility totalDistance 3398.908106611
scalar Network.V[6].veinsmobility totalCO2Emission 567.14236002465
scalar Network.V[8].appl "Duplicate Messages" 17
scalar Network.V[8].appl "Original Messages" 20
scalar Network.V[8].appl "Plist Message" 61
scalar Network.V[8].appl "Full CRL Recieved Time" 88.503096587608
scalar Network.V[8].nic.phy80211p busyTime 0.037830287937741
scalar Network.V[8].nic.mac1609_4 ReceivedUnicastPackets 79
scalar Network.V[8].nic.mac1609_4 ReceivedBroadcasts 4471
scalar Network.V[8].nic.mac1609_4 SentPackets 357
scalar Network.V[8].nic.mac1609_4 SentAcknowledgements 0
scalar Network.V[8].nic.mac1609_4 SNIRLostPackets 1648
scalar Network.V[8].nic.mac1609_4 RXTXLostPackets 35
scalar Network.V[8].nic.mac1609_4 TotalLostPackets 1683
scalar Network.V[8].nic.mac1609_4 DroppedPacketsInMac 0
scalar Network.V[8].nic.mac1609_4 TooLittleTime 0
scalar Network.V[8].nic.mac1609_4 TimesIntoBackoff 390
scalar Network.V[8].nic.mac1609_4 SlotsBackoff 579
scalar Network.V[8].nic.mac1609_4 NumInternalContention 0
scalar Network.V[8].nic.mac1609_4 totalBusyTime 9.63402007402
scalar Network.V[8].veinsmobility startTime 25
scalar Network.V[8].veinsmobility totalTime 256
scalar Network.V[8].veinsmobility stopTime 282
scalar Network.V[8].veinsmobility minSpeed 4.0643546214392
scalar Network.V[8].veinsmobility maxSpeed 13.998192990993
scalar Network.V[8].veinsmobility totalDistance 3394.0055053698
scalar Network.V[8].veinsmobility totalCO2Emission 557.69248641277
scalar Network.V[9].appl "Duplicate Messages" 0
scalar Network.V[9].appl "Original Messages" 20
scalar Network.V[9].appl "Plist Message" 207
scalar Network.V[9].appl "Full CRL Recieved Time" 69.20474300517
scalar Network.V[9].nic.phy80211p busyTime 0.034429062499998
scalar Network.V[9].nic.mac1609_4 ReceivedUnicastPackets 227
scalar Network.V[9].nic.mac1609_4 ReceivedBroadcasts 4563
scalar Network.V[9].nic.mac1609_4 SentPackets 570
scalar Network.V[9].nic.mac1609_4 SentAcknowledgements 0
scalar Network.V[9].nic.mac1609_4 SNIRLostPackets 1678
scalar Network.V[9].nic.mac1609_4 RXTXLostPackets 22
scalar Network.V[9].nic.mac1609_4 TotalLostPackets 1700
scalar Network.V[9].nic.mac1609_4 DroppedPacketsInMac 0
scalar Network.V[9].nic.mac1609_4 TooLittleTime 0
scalar Network.V[9].nic.mac1609_4 TimesIntoBackoff 574
scalar Network.V[9].nic.mac1609_4 SlotsBackoff 888
scalar Network.V[9].nic.mac1609_4 NumInternalContention 0
scalar Network.V[9].nic.mac1609_4 totalBusyTime 9.339362118034
scalar Network.V[9].veinsmobility startTime 28
scalar Network.V[9].veinsmobility totalTime 255
scalar Network.V[9].veinsmobility stopTime 284
scalar Network.V[9].veinsmobility minSpeed 3.8828872453123
scalar Network.V[9].veinsmobility maxSpeed 13.999686614256
scalar Network.V[9].veinsmobility totalDistance 3391.4728310013
scalar Network.V[9].veinsmobility totalCO2Emission 559.71143308008
scalar Network.V[7].appl "Duplicate Messages" 1
scalar Network.V[7].appl "Original Messages" 20
scalar Network.V[7].appl "Plist Message" 33
scalar Network.V[7].appl "Full CRL Recieved Time" 88.448955527106
scalar Network.V[7].nic.phy80211p busyTime 0.037316231884056
scalar Network.V[7].nic.mac1609_4 ReceivedUnicastPackets 52
scalar Network.V[7].nic.mac1609_4 ReceivedBroadcasts 4674
scalar Network.V[7].nic.mac1609_4 SentPackets 348
scalar Network.V[7].nic.mac1609_4 SentAcknowledgements 0
scalar Network.V[7].nic.mac1609_4 SNIRLostPackets 1794
scalar Network.V[7].nic.mac1609_4 RXTXLostPackets 20
scalar Network.V[7].nic.mac1609_4 TotalLostPackets 1814
scalar Network.V[7].nic.mac1609_4 DroppedPacketsInMac 0
scalar Network.V[7].nic.mac1609_4 TooLittleTime 0
scalar Network.V[7].nic.mac1609_4 TimesIntoBackoff 395
scalar Network.V[7].nic.mac1609_4 SlotsBackoff 588
scalar Network.V[7].nic.mac1609_4 NumInternalContention 0
scalar Network.V[7].nic.mac1609_4 totalBusyTime 10.057556233416
scalar Network.V[7].veinsmobility startTime 22
scalar Network.V[7].veinsmobility totalTime 275
scalar Network.V[7].veinsmobility stopTime 298
scalar Network.V[7].veinsmobility minSpeed 4.0608742667126
scalar Network.V[7].veinsmobility maxSpeed 13.999243474267
scalar Network.V[7].veinsmobility totalDistance 3396.8340237558
scalar Network.V[7].veinsmobility totalCO2Emission 570.45509986804
scalar Network.V[10].appl "Duplicate Messages" 0
scalar Network.V[10].appl "Original Messages" 20
scalar Network.V[10].appl "Plist Message" 41
scalar Network.V[10].appl "Full CRL Recieved Time" 69.256159853152
scalar Network.V[10].nic.phy80211p busyTime 0.034432089219329
scalar Network.V[10].nic.mac1609_4 ReceivedUnicastPackets 61
scalar Network.V[10].nic.mac1609_4 ReceivedBroadcasts 4825
scalar Network.V[10].nic.mac1609_4 SentPackets 334
scalar Network.V[10].nic.mac1609_4 SentAcknowledgements 0
scalar Network.V[10].nic.mac1609_4 SNIRLostPackets 1748
scalar Network.V[10].nic.mac1609_4 RXTXLostPackets 1
scalar Network.V[10].nic.mac1609_4 TotalLostPackets 1749
scalar Network.V[10].nic.mac1609_4 DroppedPacketsInMac 0
scalar Network.V[10].nic.mac1609_4 TooLittleTime 0
scalar Network.V[10].nic.mac1609_4 TimesIntoBackoff 339
scalar Network.V[10].nic.mac1609_4 SlotsBackoff 526
scalar Network.V[10].nic.mac1609_4 NumInternalContention 0
scalar Network.V[10].nic.mac1609_4 totalBusyTime 8.984534
scalar Network.V[10].veinsmobility startTime 31
scalar Network.V[10].veinsmobility totalTime 268
scalar Network.V[10].veinsmobility stopTime 300
scalar Network.V[10].veinsmobility minSpeed 4.1947202222332
scalar Network.V[10].veinsmobility maxSpeed 13.999328219597
scalar Network.V[10].veinsmobility totalDistance 3398.8950839719
scalar Network.V[10].veinsmobility totalCO2Emission 579.58996934347
scalar Network.V[11].appl "Duplicate Messages" 0
scalar Network.V[11].appl "Original Messages" 20
scalar Network.V[11].appl "Plist Message" 25
scalar Network.V[11].appl "Full CRL Recieved Time" 70.252748991825
scalar Network.V[11].nic.phy80211p busyTime 0.034156451127818
scalar Network.V[11].nic.mac1609_4 ReceivedUnicastPackets 45
scalar Network.V[11].nic.mac1609_4 ReceivedBroadcasts 4835
scalar Network.V[11].nic.mac1609_4 SentPackets 315
scalar Network.V[11].nic.mac1609_4 SentAcknowledgements 0
scalar Network.V[11].nic.mac1609_4 SNIRLostPackets 1785
scalar Network.V[11].nic.mac1609_4 RXTXLostPackets 15
scalar Network.V[11].nic.mac1609_4 TotalLostPackets 1800
scalar Network.V[11].nic.mac1609_4 DroppedPacketsInMac 0
scalar Network.V[11].nic.mac1609_4 TooLittleTime 0
scalar Network.V[11].nic.mac1609_4 TimesIntoBackoff 342
scalar Network.V[11].nic.mac1609_4 SlotsBackoff 504
scalar Network.V[11].nic.mac1609_4 NumInternalContention 0
scalar Network.V[11].nic.mac1609_4 totalBusyTime 8.847707169069
scalar Network.V[11].veinsmobility startTime 34
scalar Network.V[11].veinsmobility totalTime 266
scalar Network.V[11].veinsmobility stopTime 300
scalar Network.V[11].veinsmobility minSpeed 3.8489417596173
scalar Network.V[11].veinsmobility maxSpeed 13.999905188144
scalar Network.V[11].veinsmobility totalDistance 3390.6262491918
scalar Network.V[11].veinsmobility totalCO2Emission 560.65704511075
scalar Network.V[12].appl "Duplicate Messages" 12
scalar Network.V[12].appl "Original Messages" 20
scalar Network.V[12].appl "Plist Message" 398
scalar Network.V[12].appl "Full CRL Recieved Time" 88.503096931882
scalar Network.V[12].nic.phy80211p busyTime 0.025637171102661
scalar Network.V[12].nic.mac1609_4 ReceivedUnicastPackets 407
scalar Network.V[12].nic.mac1609_4 ReceivedBroadcasts 4887
scalar Network.V[12].nic.mac1609_4 SentPackets 1003
scalar Network.V[12].nic.mac1609_4 SentAcknowledgements 0
scalar Network.V[12].nic.mac1609_4 SNIRLostPackets 1661
scalar Network.V[12].nic.mac1609_4 RXTXLostPackets 86
scalar Network.V[12].nic.mac1609_4 TotalLostPackets 1747
scalar Network.V[12].nic.mac1609_4 DroppedPacketsInMac 0
scalar Network.V[12].nic.mac1609_4 TooLittleTime 0
scalar Network.V[12].nic.mac1609_4 TimesIntoBackoff 1016
scalar Network.V[12].nic.mac1609_4 SlotsBackoff 1551
scalar Network.V[12].nic.mac1609_4 NumInternalContention 0
scalar Network.V[12].nic.mac1609_4 totalBusyTime 8.879291
scalar Network.V[12].veinsmobility startTime 37
scalar Network.V[12].veinsmobility totalTime 263
scalar Network.V[12].veinsmobility stopTime 300
scalar Network.V[12].veinsmobility minSpeed 3.9219617499206
scalar Network.V[12].veinsmobility maxSpeed 13.999539690407
scalar Network.V[12].veinsmobility totalDistance 3379.2300978306
scalar Network.V[12].veinsmobility totalCO2Emission 551.06456786796
scalar Network.V[13].appl "Duplicate Messages" 0
scalar Network.V[13].appl "Original Messages" 20
scalar Network.V[13].appl "Plist Message" 48
scalar Network.V[13].appl "Full CRL Recieved Time" 71.9178793431
scalar Network.V[13].nic.phy80211p busyTime 0.033755169230768
scalar Network.V[13].nic.mac1609_4 ReceivedUnicastPackets 68
scalar Network.V[13].nic.mac1609_4 ReceivedBroadcasts 4963
scalar Network.V[13].nic.mac1609_4 SentPackets 316
scalar Network.V[13].nic.mac1609_4 SentAcknowledgements 0
scalar Network.V[13].nic.mac1609_4 SNIRLostPackets 1753
scalar Network.V[13].nic.mac1609_4 RXTXLostPackets 1
scalar Network.V[13].nic.mac1609_4 TotalLostPackets 1754
scalar Network.V[13].nic.mac1609_4 DroppedPacketsInMac 0
scalar Network.V[13].nic.mac1609_4 TooLittleTime 0
scalar Network.V[13].nic.mac1609_4 TimesIntoBackoff 325
scalar Network.V[13].nic.mac1609_4 SlotsBackoff 496
scalar Network.V[13].nic.mac1609_4 NumInternalContention 0
scalar Network.V[13].nic.mac1609_4 totalBusyTime 8.640052099007
scalar Network.V[13].veinsmobility startTime 40
scalar Network.V[13].veinsmobility totalTime 260
scalar Network.V[13].veinsmobility stopTime 300
scalar Network.V[13].veinsmobility minSpeed 4.0161385181755
scalar Network.V[13].veinsmobility maxSpeed 13.999926172604
scalar Network.V[13].veinsmobility totalDistance 3361.9519593878
scalar Network.V[13].veinsmobility totalCO2Emission 549.33539782939
scalar Network.V[14].appl "Duplicate Messages" 0
scalar Network.V[14].appl "Original Messages" 20
scalar Network.V[14].appl "Plist Message" 18
scalar Network.V[14].appl "Full CRL Recieved Time" 71.876729139882
scalar Network.V[14].nic.phy80211p busyTime 0.033919937743189
scalar Network.V[14].nic.mac1609_4 ReceivedUnicastPackets 38
scalar Network.V[14].nic.mac1609_4 ReceivedBroadcasts 5014
scalar Network.V[14].nic.mac1609_4 SentPackets 298
scalar Network.V[14].nic.mac1609_4 SentAcknowledgements 0
scalar Network.V[14].nic.mac1609_4 SNIRLostPackets 1844
scalar Network.V[14].nic.mac1609_4 RXTXLostPackets 13
scalar Network.V[14].nic.mac1609_4 TotalLostPackets 1857
scalar Network.V[14].nic.mac1609_4 DroppedPacketsInMac 0
scalar Network.V[14].nic.mac1609_4 TooLittleTime 0
scalar Network.V[14].nic.mac1609_4 TimesIntoBackoff 307
scalar Network.V[14].nic.mac1609_4 SlotsBackoff 464
scalar Network.V[14].nic.mac1609_4 NumInternalContention 0
scalar Network.V[14].nic.mac1609_4 totalBusyTime 8.546234063851
scalar Network.V[14].veinsmobility startTime 43
scalar Network.V[14].veinsmobility totalTime 257
scalar Network.V[14].veinsmobility stopTime 300
scalar Network.V[14].veinsmobility minSpeed 3.9992962979057
scalar Network.V[14].veinsmobility maxSpeed 13.999656618503
scalar Network.V[14].veinsmobility totalDistance 3349.3995357706
scalar Network.V[14].veinsmobility totalCO2Emission 545.44949929252
scalar Network.V[15].appl "Duplicate Messages" 10
scalar Network.V[15].appl "Original Messages" 20
scalar Network.V[15].appl "Plist Message" 10
scalar Network.V[15].appl "Full CRL Recieved Time" 108.48722807416
scalar Network.V[15].nic.phy80211p busyTime 0.033645133858266
scalar Network.V[15].nic.mac1609_4 ReceivedUnicastPackets 26
scalar Network.V[15].nic.mac1609_4 ReceivedBroadcasts 5090
scalar Network.V[15].nic.mac1609_4 SentPackets 320
scalar Network.V[15].nic.mac1609_4 SentAcknowledgements 0
scalar Network.V[15].nic.mac1609_4 SNIRLostPackets 1970
scalar Network.V[15].nic.mac1609_4 RXTXLostPackets 22
scalar Network.V[15].nic.mac1609_4 TotalLostPackets 1992
scalar Network.V[15].nic.mac1609_4 DroppedPacketsInMac 0
scalar Network.V[15].nic.mac1609_4 TooLittleTime 0
scalar Network.V[15].nic.mac1609_4 TimesIntoBackoff 600
scalar Network.V[15].nic.mac1609_4 SlotsBackoff 897
scalar Network.V[15].nic.mac1609_4 NumInternalContention 0
scalar Network.V[15].nic.mac1609_4 totalBusyTime 8.534360104157
scalar Network.V[15].veinsmobility startTime 46
scalar Network.V[15].veinsmobility totalTime 254
scalar Network.V[15].veinsmobility stopTime 300
scalar Network.V[15].veinsmobility minSpeed 4.1510441398274
scalar Network.V[15].veinsmobility maxSpeed 13.999630704054
scalar Network.V[15].veinsmobility totalDistance 3333.8237153224
scalar Network.V[15].veinsmobility totalCO2Emission 542.32842735094
scalar Network.V[16].appl "Duplicate Messages" 1
scalar Network.V[16].appl "Original Messages" 20
scalar Network.V[16].appl "Plist Message" 46
scalar Network.V[16].appl "Full CRL Recieved Time" 108.44895520907
scalar Network.V[16].nic.phy80211p busyTime 0.032061928286851
scalar Network.V[16].nic.mac1609_4 ReceivedUnicastPackets 65
scalar Network.V[16].nic.mac1609_4 ReceivedBroadcasts 5188
scalar Network.V[16].nic.mac1609_4 SentPackets 336
scalar Network.V[16].nic.mac1609_4 SentAcknowledgements 0
scalar Network.V[16].nic.mac1609_4 SNIRLostPackets 1827
scalar Network.V[16].nic.mac1609_4 RXTXLostPackets 9
scalar Network.V[16].nic.mac1609_4 TotalLostPackets 1836
scalar Network.V[16].nic.mac1609_4 DroppedPacketsInMac 0
scalar Network.V[16].nic.mac1609_4 TooLittleTime 0
scalar Network.V[16].nic.mac1609_4 TimesIntoBackoff 349
scalar Network.V[16].nic.mac1609_4 SlotsBackoff 505
scalar Network.V[16].nic.mac1609_4 NumInternalContention 0
scalar Network.V[16].nic.mac1609_4 totalBusyTime 8.0756480877
scalar Network.V[16].veinsmobility startTime 49
scalar Network.V[16].veinsmobility totalTime 251
scalar Network.V[16].veinsmobility stopTime 300
scalar Network.V[16].veinsmobility minSpeed 3.8447853377257
scalar Network.V[16].veinsmobility maxSpeed 13.999218537293
scalar Network.V[16].veinsmobility totalDistance 3321.1198362535
scalar Network.V[16].veinsmobility totalCO2Emission 538.0667218696
scalar Network.V[17].appl "Duplicate Messages" 1
scalar Network.V[17].appl "Original Messages" 20
scalar Network.V[17].appl "Plist Message" 28
scalar Network.V[17].appl "Full CRL Recieved Time" 128.44898585639
scalar Network.V[17].nic.phy80211p busyTime 0.029356967741934
scalar Network.V[17].nic.mac1609_4 ReceivedUnicastPackets 47
scalar Network.V[17].nic.mac1609_4 ReceivedBroadcasts 5487
scalar Network.V[17].nic.mac1609_4 SentPackets 282
scalar Network.V[17].nic.mac1609_4 SentAcknowledgements 0
scalar Network.V[17].nic.mac1609_4 SNIRLostPackets 2240
scalar Network.V[17].nic.mac1609_4 RXTXLostPackets 2
scalar Network.V[17].nic.mac1609_4 TotalLostPackets 2242
scalar Network.V[17].nic.mac1609_4 DroppedPacketsInMac 0
scalar Network.V[17].nic.mac1609_4 TooLittleTime 0
scalar Network.V[17].nic.mac1609_4 TimesIntoBackoff 301
scalar Network.V[17].nic.mac1609_4 SlotsBackoff 422
scalar Network.V[17].nic.mac1609_4 NumInternalContention 0
scalar Network.V[17].nic.mac1609_4 totalBusyTime 7.223602
scalar Network.V[17].veinsmobility startTime 52
scalar Network.V[17].veinsmobility totalTime 248
scalar Network.V[17].veinsmobility stopTime 300
scalar Network.V[17].veinsmobility minSpeed 3.8698786158062
scalar Network.V[17].veinsmobility maxSpeed 13.999116995411
scalar Network.V[17].veinsmobility totalDistance 3035.3101308709
scalar Network.V[17].veinsmobility totalCO2Emission 510.73920409043
scalar Network.V[18].appl "Duplicate Messages" 1
scalar Network.V[18].appl "Original Messages" 20
scalar Network.V[18].appl "Plist Message" 26
scalar Network.V[18].appl "Full CRL Recieved Time" 128.44898591883
scalar Network.V[18].nic.phy80211p busyTime 0.02727017142857
scalar Network.V[18].nic.mac1609_4 ReceivedUnicastPackets 45
scalar Network.V[18].nic.mac1609_4 ReceivedBroadcasts 5402
scalar Network.V[18].nic.mac1609_4 SentPackets 274
scalar Network.V[18].nic.mac1609_4 SentAcknowledgements 0
scalar Network.V[18].nic.mac1609_4 SNIRLostPackets 2029
scalar Network.V[18].nic.mac1609_4 RXTXLostPackets 1
scalar Network.V[18].nic.mac1609_4 TotalLostPackets 2030
scalar Network.V[18].nic.mac1609_4 DroppedPacketsInMac 0
scalar Network.V[18].nic.mac1609_4 TooLittleTime 0
scalar Network.V[18].nic.mac1609_4 TimesIntoBackoff 275
scalar Network.V[18].nic.mac1609_4 SlotsBackoff 457
scalar Network.V[18].nic.mac1609_4 NumInternalContention 0
scalar Network.V[18].nic.mac1609_4 totalBusyTime 6.63649
scalar Network.V[18].veinsmobility startTime 55
scalar Network.V[18].veinsmobility totalTime 245
scalar Network.V[18].veinsmobility stopTime 300
scalar Network.V[18].veinsmobility minSpeed 4.0700236807532
scalar Network.V[18].veinsmobility maxSpeed 13.999699370395
scalar Network.V[18].veinsmobility totalDistance 3220.1056082863
scalar Network.V[18].veinsmobility totalCO2Emission 528.31344222078
scalar Network.V[19].appl "Duplicate Messages" 7
scalar Network.V[19].appl "Original Messages" 20
scalar Network.V[19].appl "Plist Message" 19
scalar Network.V[19].appl "Full CRL Recieved Time" 128.46496153583
scalar Network.V[19].nic.phy80211p busyTime 0.025797719008264
scalar Network.V[19].nic.mac1609_4 ReceivedUnicastPackets 35
scalar Network.V[19].nic.mac1609_4 ReceivedBroadcasts 5431
scalar Network.V[19].nic.mac1609_4 SentPackets 264
scalar Network.V[19].nic.mac1609_4 SentAcknowledgements 0
scalar Network.V[19].nic.mac1609_4 SNIRLostPackets 1947
scalar Network.V[19].nic.mac1609_4 RXTXLostPackets 3
scalar Network.V[19].nic.mac1609_4 TotalLostPackets 1950
scalar Network.V[19].nic.mac1609_4 DroppedPacketsInMac 0
scalar Network.V[19].nic.mac1609_4 TooLittleTime 0
scalar Network.V[19].nic.mac1609_4 TimesIntoBackoff 267
scalar Network.V[19].nic.mac1609_4 SlotsBackoff 397
scalar Network.V[19].nic.mac1609_4 NumInternalContention 0
scalar Network.V[19].nic.mac1609_4 totalBusyTime 6.21636
scalar Network.V[19].veinsmobility startTime 58
scalar Network.V[19].veinsmobility totalTime 242
scalar Network.V[19].veinsmobility stopTime 300
scalar Network.V[19].veinsmobility minSpeed 3.8447639940612
scalar Network.V[19].veinsmobility maxSpeed 13.999608246239
scalar Network.V[19].veinsmobility totalDistance 3175.3719379334
scalar Network.V[19].veinsmobility totalCO2Emission 521.39743552733
scalar Network.V[20].appl "Duplicate Messages" 17
scalar Network.V[20].appl "Original Messages" 20
scalar Network.V[20].appl "Plist Message" 18
scalar Network.V[20].appl "Full CRL Recieved Time" 128.50637959539
scalar Network.V[20].nic.phy80211p busyTime 0.025223999999999
scalar Network.V[20].nic.mac1609_4 ReceivedUnicastPackets 36
scalar Network.V[20].nic.mac1609_4 ReceivedBroadcasts 5441
scalar Network.V[20].nic.mac1609_4 SentPackets 257
scalar Network.V[20].nic.mac1609_4 SentAcknowledgements 0
scalar Network.V[20].nic.mac1609_4 SNIRLostPackets 1974
scalar Network.V[20].nic.mac1609_4 RXTXLostPackets 1
scalar Network.V[20].nic.mac1609_4 TotalLostPackets 1975
scalar Network.V[20].nic.mac1609_4 DroppedPacketsInMac 0
scalar Network.V[20].nic.mac1609_4 TooLittleTime 0
scalar Network.V[20].nic.mac1609_4 TimesIntoBackoff 259
scalar Network.V[20].nic.mac1609_4 SlotsBackoff 407
scalar Network.V[20].nic.mac1609_4 NumInternalContention 0
scalar Network.V[20].nic.mac1609_4 totalBusyTime 6.005473
scalar Network.V[20].veinsmobility startTime 61
scalar Network.V[20].veinsmobility totalTime 239
scalar Network.V[20].veinsmobility stopTime 300
scalar Network.V[20].veinsmobility minSpeed 4.018615917157
scalar Network.V[20].veinsmobility maxSpeed 13.999763481072
scalar Network.V[20].veinsmobility totalDistance 3154.3219425974
scalar Network.V[20].veinsmobility totalCO2Emission 522.46885186744
scalar Network.V[21].appl "Duplicate Messages" 16
scalar Network.V[21].appl "Original Messages" 20
scalar Network.V[21].appl "Plist Message" 7
scalar Network.V[21].appl "Full CRL Recieved Time" 128.50637965466
scalar Network.V[21].nic.phy80211p busyTime 0.023087966101694
scalar Network.V[21].nic.mac1609_4 ReceivedUnicastPackets 24
scalar Network.V[21].nic.mac1609_4 ReceivedBroadcasts 5431
scalar Network.V[21].nic.mac1609_4 SentPackets 248
scalar Network.V[21].nic.mac1609_4 SentAcknowledgements 0
scalar Network.V[21].nic.mac1609_4 SNIRLostPackets 1889
scalar Network.V[21].nic.mac1609_4 RXTXLostPackets 6
scalar Network.V[21].nic.mac1609_4 TotalLostPackets 1895
scalar Network.V[21].nic.mac1609_4 DroppedPacketsInMac 0
scalar Network.V[21].nic.mac1609_4 TooLittleTime 0
scalar Network.V[21].nic.mac1609_4 TimesIntoBackoff 250
scalar Network.V[21].nic.mac1609_4 SlotsBackoff 409
scalar Network.V[21].nic.mac1609_4 NumInternalContention 0
scalar Network.V[21].nic.mac1609_4 totalBusyTime 5.448336074682
scalar Network.V[21].veinsmobility startTime 64
scalar Network.V[21].veinsmobility totalTime 236
scalar Network.V[21].veinsmobility stopTime 300
scalar Network.V[21].veinsmobility minSpeed 4.2842987557744
scalar Network.V[21].veinsmobility maxSpeed 13.999963147973
scalar Network.V[21].veinsmobility totalDistance 3115.1655598982
scalar Network.V[21].veinsmobility totalCO2Emission 512.34158807713
scalar Network.V[22].appl "Duplicate Messages" 15
scalar Network.V[22].appl "Original Messages" 20
scalar Network.V[22].appl "Plist Message" 5
scalar Network.V[22].appl "Full CRL Recieved Time" 128.50637971447
scalar Network.V[22].nic.phy80211p busyTime 0.020660909871244
scalar Network.V[22].nic.mac1609_4 ReceivedUnicastPackets 22
scalar Network.V[22].nic.mac1609_4 ReceivedBroadcasts 5363
scalar Network.V[22].nic.mac1609_4 SentPackets 242
scalar Network.V[22].nic.mac1609_4 SentAcknowledgements 0
scalar Network.V[22].nic.mac1609_4 SNIRLostPackets 1988
scalar Network.V[22].nic.mac1609_4 RXTXLostPackets 6
scalar Network.V[22].nic.mac1609_4 TotalLostPackets 1994
scalar Network.V[22].nic.mac1609_4 DroppedPacketsInMac 0
scalar Network.V[22].nic.mac1609_4 TooLittleTime 0
scalar Network.V[22].nic.mac1609_4 TimesIntoBackoff 248
scalar Network.V[22].nic.mac1609_4 SlotsBackoff 357
scalar Network.V[22].nic.mac1609_4 NumInternalContention 0
scalar Network.V[22].nic.mac1609_4 totalBusyTime 4.838026073328
scalar Network.V[22].veinsmobility startTime 67
scalar Network.V[22].veinsmobility totalTime 233
scalar Network.V[22].veinsmobility stopTime 300
scalar Network.V[22].veinsmobility minSpeed 4.1832233416825
scalar Network.V[22].veinsmobility maxSpeed 13.997139654839
scalar Network.V[22].veinsmobility totalDistance 3018.6378543054
scalar Network.V[22].veinsmobility totalCO2Emission 501.86729923752
scalar Network.V[23].appl "Duplicate Messages" 23
scalar Network.V[23].appl "Original Messages" 20
scalar Network.V[23].appl "Plist Message" 30
scalar Network.V[23].appl "Full CRL Recieved Time" 148.50326888807
scalar Network.V[23].nic.phy80211p busyTime 0.012142573913043
scalar Network.V[23].nic.mac1609_4 ReceivedUnicastPackets 48
scalar Network.V[23].nic.mac1609_4 ReceivedBroadcasts 5136
scalar Network.V[23].nic.mac1609_4 SentPackets 747
scalar Network.V[23].nic.mac1609_4 SentAcknowledgements 0
scalar Network.V[23].nic.mac1609_4 SNIRLostPackets 2193
scalar Network.V[23].nic.mac1609_4 RXTXLostPackets 14
scalar Network.V[23].nic.mac1609_4 TotalLostPackets 2207
scalar Network.V[23].nic.mac1609_4 DroppedPacketsInMac 0
scalar Network.V[23].nic.mac1609_4 TooLittleTime 0
scalar Network.V[23].nic.mac1609_4 TimesIntoBackoff 748
scalar Network.V[23].nic.mac1609_4 SlotsBackoff 1170
scalar Network.V[23].nic.mac1609_4 NumInternalContention 0
scalar Network.V[23].nic.mac1609_4 totalBusyTime 4.414867158837
scalar Network.V[23].veinsmobility startTime 70
scalar Network.V[23].veinsmobility totalTime 230
scalar Network.V[23].veinsmobility stopTime 300
scalar Network.V[23].veinsmobility minSpeed 4.0859593419879
scalar Network.V[23].veinsmobility maxSpeed 13.998363435396
scalar Network.V[23].veinsmobility totalDistance 2894.0839603349
scalar Network.V[23].veinsmobility totalCO2Emission 486.89343818161
scalar Network.V[24].appl "Duplicate Messages" 15
scalar Network.V[24].appl "Original Messages" 20
scalar Network.V[24].appl "Plist Message" 1
scalar Network.V[24].appl "Full CRL Recieved Time" 148.50326895208
scalar Network.V[24].nic.phy80211p busyTime 0.017419136563876
scalar Network.V[24].nic.mac1609_4 ReceivedUnicastPackets 18
scalar Network.V[24].nic.mac1609_4 ReceivedBroadcasts 5018
scalar Network.V[24].nic.mac1609_4 SentPackets 229
scalar Network.V[24].nic.mac1609_4 SentAcknowledgements 0
scalar Network.V[24].nic.mac1609_4 SNIRLostPackets 2175
scalar Network.V[24].nic.mac1609_4 RXTXLostPackets 2
scalar Network.V[24].nic.mac1609_4 TotalLostPackets 2177
scalar Network.V[24].nic.mac1609_4 DroppedPacketsInMac 0
scalar Network.V[24].nic.mac1609_4 TooLittleTime 0
scalar Network.V[24].nic.mac1609_4 TimesIntoBackoff 232
scalar Network.V[24].nic.mac1609_4 SlotsBackoff 366
scalar Network.V[24].nic.mac1609_4 NumInternalContention 0
scalar Network.V[24].nic.mac1609_4 totalBusyTime 3.985341097333
scalar Network.V[24].veinsmobility startTime 73
scalar Network.V[24].veinsmobility totalTime 227
scalar Network.V[24].veinsmobility stopTime 300
scalar Network.V[24].veinsmobility minSpeed 4.0735588402093
scalar Network.V[24].veinsmobility maxSpeed 13.999299916551
scalar Network.V[24].veinsmobility totalDistance 2986.6971725724
scalar Network.V[24].veinsmobility totalCO2Emission 491.65825760153
scalar Network.V[25].appl "Duplicate Messages" 15
scalar Network.V[25].appl "Original Messages" 20
scalar Network.V[25].appl "Plist Message" 1
scalar Network.V[25].appl "Full CRL Recieved Time" 148.50326901542
scalar Network.V[25].nic.phy80211p busyTime 0.0170755
scalar Network.V[25].nic.mac1609_4 ReceivedUnicastPackets 18
scalar Network.V[25].nic.mac1609_4 ReceivedBroadcasts 4952
scalar Network.V[25].nic.mac1609_4 SentPackets 226
scalar Network.V[25].nic.mac1609_4 SentAcknowledgements 0
scalar Network.V[25].nic.mac1609_4 SNIRLostPackets 2198
scalar Network.V[25].nic.mac1609_4 RXTXLostPackets 2
scalar Network.V[25].nic.mac1609_4 TotalLostPackets 2200
scalar Network.V[25].nic.mac1609_4 DroppedPacketsInMac 0
scalar Network.V[25].nic.mac1609_4 TooLittleTime 0
scalar Network.V[25].nic.mac1609_4 TimesIntoBackoff 228
scalar Network.V[25].nic.mac1609_4 SlotsBackoff 338
scalar Network.V[25].nic.mac1609_4 NumInternalContention 0
scalar Network.V[25].nic.mac1609_4 totalBusyTime 3.855026
scalar Network.V[25].veinsmobility startTime 76
scalar Network.V[25].veinsmobility totalTime 224
scalar Network.V[25].veinsmobility stopTime 300
scalar Network.V[25].veinsmobility minSpeed 4.0635240824116
scalar Network.V[25].veinsmobility maxSpeed 13.999252574216
scalar Network.V[25].veinsmobility totalDistance 2967.0436007467
scalar Network.V[25].veinsmobility totalCO2Emission 492.05111463505
scalar Network.V[26].appl "Duplicate Messages" 18
scalar Network.V[26].appl "Original Messages" 20
scalar Network.V[26].appl "Plist Message" 2
scalar Network.V[26].appl "Full CRL Recieved Time" 148.5032690786
scalar Network.V[26].nic.phy80211p busyTime 0.017327457013574
scalar Network.V[26].nic.mac1609_4 ReceivedUnicastPackets 20
scalar Network.V[26].nic.mac1609_4 ReceivedBroadcasts 4926
scalar Network.V[26].nic.mac1609_4 SentPackets 223
scalar Network.V[26].nic.mac1609_4 SentAcknowledgements 0
scalar Network.V[26].nic.mac1609_4 SNIRLostPackets 2213
scalar Network.V[26].nic.mac1609_4 RXTXLostPackets 1
scalar Network.V[26].nic.mac1609_4 TotalLostPackets 2214
scalar Network.V[26].nic.mac1609_4 DroppedPacketsInMac 0
scalar Network.V[26].nic.mac1609_4 TooLittleTime 0
scalar Network.V[26].nic.mac1609_4 TimesIntoBackoff 225
scalar Network.V[26].nic.mac1609_4 SlotsBackoff 302
scalar Network.V[26].nic.mac1609_4 NumInternalContention 0
scalar Network.V[26].nic.mac1609_4 totalBusyTime 3.861079
scalar Network.V[26].veinsmobility startTime 79
scalar Network.V[26].veinsmobility totalTime 221
scalar Network.V[26].veinsmobility stopTime 300
scalar Network.V[26].veinsmobility minSpeed 4.0267229073465
scalar Network.V[26].veinsmobility maxSpeed 13.999621272914
scalar Network.V[26].veinsmobility totalDistance 2941.3865416002
scalar Network.V[26].veinsmobility totalCO2Emission 484.76697057671
scalar Network.V[27].appl "Duplicate Messages" 16
scalar Network.V[27].appl "Original Messages" 20
scalar Network.V[27].appl "Plist Message" 2
scalar Network.V[27].appl "Full CRL Recieved Time" 148.50326914018
scalar Network.V[27].nic.phy80211p busyTime 0.017609321100917
scalar Network.V[27].nic.mac1609_4 ReceivedUnicastPackets 20
scalar Network.V[27].nic.mac1609_4 ReceivedBroadcasts 4873
scalar Network.V[27].nic.mac1609_4 SentPackets 220
scalar Network.V[27].nic.mac1609_4 SentAcknowledgements 0
scalar Network.V[27].nic.mac1609_4 SNIRLostPackets 2323
scalar Network.V[27].nic.mac1609_4 RXTXLostPackets 0
scalar Network.V[27].nic.mac1609_4 TotalLostPackets 2323
scalar Network.V[27].nic.mac1609_4 DroppedPacketsInMac 0
scalar Network.V[27].nic.mac1609_4 TooLittleTime 0
scalar Network.V[27].nic.mac1609_4 TimesIntoBackoff 220
scalar Network.V[27].nic.mac1609_4 SlotsBackoff 328
scalar Network.V[27].nic.mac1609_4 NumInternalContention 0
scalar Network.V[27].nic.mac1609_4 totalBusyTime 3.8657
scalar Network.V[27].veinsmobility startTime 82
scalar Network.V[27].veinsmobility totalTime 218
scalar Network.V[27].veinsmobility stopTime 300
scalar Network.V[27].veinsmobility minSpeed 3.8169569386458
scalar Network.V[27].veinsmobility maxSpeed 13.998507969014
scalar Network.V[27].veinsmobility totalDistance 2875.5598898605
scalar Network.V[27].veinsmobility totalCO2Emission 480.83844553993
scalar Network.V[28].appl "Duplicate Messages" 16
scalar Network.V[28].appl "Original Messages" 20
scalar Network.V[28].appl "Plist Message" 2
scalar Network.V[28].appl "Full CRL Recieved Time" 148.50326923994
scalar Network.V[28].nic.phy80211p busyTime 0.017796539534883
scalar Network.V[28].nic.mac1609_4 ReceivedUnicastPackets 20
scalar Network.V[28].nic.mac1609_4 ReceivedBroadcasts 4872
scalar Network.V[28].nic.mac1609_4 SentPackets 217
scalar Network.V[28].nic.mac1609_4 SentAcknowledgements 0
scalar Network.V[28].nic.mac1609_4 SNIRLostPackets 2344
scalar Network.V[28].nic.mac1609_4 RXTXLostPackets 2
scalar Network.V[28].nic.mac1609_4 TotalLostPackets 2346
scalar Network.V[28].nic.mac1609_4 DroppedPacketsInMac 0
scalar Network.V[28].nic.mac1609_4 TooLittleTime 0
scalar Network.V[28].nic.mac1609_4 TimesIntoBackoff 221
scalar Network.V[28].nic.mac1609_4 SlotsBackoff 305
scalar Network.V[28].nic.mac1609_4 NumInternalContention 0
scalar Network.V[28].nic.mac1609_4 totalBusyTime 3.852905
scalar Network.V[28].veinsmobility startTime 85
scalar Network.V[28].veinsmobility totalTime 215
scalar Network.V[28].veinsmobility stopTime 300
scalar Network.V[28].veinsmobility minSpeed 4.0343364698305
scalar Network.V[28].veinsmobility maxSpeed 13.999620908881
scalar Network.V[28].veinsmobility totalDistance 2857.6845746555
scalar Network.V[28].veinsmobility totalCO2Emission 474.93153283335
scalar Network.V[29].appl "Duplicate Messages" 14
scalar Network.V[29].appl "Original Messages" 20
scalar Network.V[29].appl "Plist Message" 3
scalar Network.V[29].appl "Full CRL Recieved Time" 148.50326936282
scalar Network.V[29].nic.phy80211p busyTime 0.017371320754717
scalar Network.V[29].nic.mac1609_4 ReceivedUnicastPackets 21
scalar Network.V[29].nic.mac1609_4 ReceivedBroadcasts 4852
scalar Network.V[29].nic.mac1609_4 SentPackets 233
scalar Network.V[29].nic.mac1609_4 SentAcknowledgements 0
scalar Network.V[29].nic.mac1609_4 SNIRLostPackets 2305
scalar Network.V[29].nic.mac1609_4 RXTXLostPackets 2
scalar Network.V[29].nic.mac1609_4 TotalLostPackets 2307
scalar Network.V[29].nic.mac1609_4 DroppedPacketsInMac 0
scalar Network.V[29].nic.mac1609_4 TooLittleTime 0
scalar Network.V[29].nic.mac1609_4 TimesIntoBackoff 234
scalar Network.V[29].nic.mac1609_4 SlotsBackoff 369
scalar Network.V[29].nic.mac1609_4 NumInternalContention 0
scalar Network.V[29].nic.mac1609_4 totalBusyTime 3.767865
scalar Network.V[29].veinsmobility startTime 88
scalar Network.V[29].veinsmobility totalTime 212
scalar Network.V[29].veinsmobility stopTime 300
scalar Network.V[29].veinsmobility minSpeed 4.0013211675714
scalar Network.V[29].veinsmobility maxSpeed 13.999449843408
scalar Network.V[29].veinsmobility totalDistance 2840.2618073734
scalar Network.V[29].veinsmobility totalCO2Emission 471.7310652617
scalar Network.V[30].appl "Duplicate Messages" 14
scalar Network.V[30].appl "Original Messages" 20
scalar Network.V[30].appl "Plist Message" 2
scalar Network.V[30].appl "Full CRL Recieved Time" 148.50326949395
scalar Network.V[30].nic.phy80211p busyTime 0.017381014354067
scalar Network.V[30].nic.mac1609_4 ReceivedUnicastPackets 20
scalar Network.V[30].nic.mac1609_4 ReceivedBroadcasts 4875
scalar Network.V[30].nic.mac1609_4 SentPackets 211
scalar Network.V[30].nic.mac1609_4 SentAcknowledgements 0
scalar Network.V[30].nic.mac1609_4 SNIRLostPackets 2174
scalar Network.V[30].nic.mac1609_4 RXTXLostPackets 1
scalar Network.V[30].nic.mac1609_4 TotalLostPackets 2175
scalar Network.V[30].nic.mac1609_4 DroppedPacketsInMac 0
scalar Network.V[30].nic.mac1609_4 TooLittleTime 0
scalar Network.V[30].nic.mac1609_4 TimesIntoBackoff 214
scalar Network.V[30].nic.mac1609_4 SlotsBackoff 348
scalar Network.V[30].nic.mac1609_4 NumInternalContention 0
scalar Network.V[30].nic.mac1609_4 totalBusyTime 3.658107
scalar Network.V[30].veinsmobility startTime 91
scalar Network.V[30].veinsmobility totalTime 209
scalar Network.V[30].veinsmobility stopTime 300
scalar Network.V[30].veinsmobility minSpeed 4.0929231651139
scalar Network.V[30].veinsmobility maxSpeed 13.999186862605
scalar Network.V[30].veinsmobility totalDistance 2821.9921171832
scalar Network.V[30].veinsmobility totalCO2Emission 466.26736329422
scalar Network.V[31].appl "Duplicate Messages" 14
scalar Network.V[31].appl "Original Messages" 20
scalar Network.V[31].appl "Plist Message" 2
scalar Network.V[31].appl "Full CRL Recieved Time" 148.50326962427
scalar Network.V[31].nic.phy80211p busyTime 0.017833708737864
scalar Network.V[31].nic.mac1609_4 ReceivedUnicastPackets 20
scalar Network.V[31].nic.mac1609_4 ReceivedBroadcasts 4932
scalar Network.V[31].nic.mac1609_4 SentPackets 208
scalar Network.V[31].nic.mac1609_4 SentAcknowledgements 0
scalar Network.V[31].nic.mac1609_4 SNIRLostPackets 2011
scalar Network.V[31].nic.mac1609_4 RXTXLostPackets 1
scalar Network.V[31].nic.mac1609_4 TotalLostPackets 2012
scalar Network.V[31].nic.mac1609_4 DroppedPacketsInMac 0
scalar Network.V[31].nic.mac1609_4 TooLittleTime 0
scalar Network.V[31].nic.mac1609_4 TimesIntoBackoff 209
scalar Network.V[31].nic.mac1609_4 SlotsBackoff 322
scalar Network.V[31].nic.mac1609_4 NumInternalContention 0
scalar Network.V[31].nic.mac1609_4 totalBusyTime 3.702112
scalar Network.V[31].veinsmobility startTime 94
scalar Network.V[31].veinsmobility totalTime 206
scalar Network.V[31].veinsmobility stopTime 300
scalar Network.V[31].veinsmobility minSpeed 4.2052558286512
scalar Network.V[31].veinsmobility maxSpeed 13.998518423606
scalar Network.V[31].veinsmobility totalDistance 2787.8423971628
scalar Network.V[31].veinsmobility totalCO2Emission 467.43028278003
scalar Network.V[32].appl "Duplicate Messages" 20
scalar Network.V[32].appl "Original Messages" 20
scalar Network.V[32].appl "Plist Message" 2
scalar Network.V[32].appl "Full CRL Recieved Time" 168.49700135224
scalar Network.V[32].nic.phy80211p busyTime 0.019438266009852
scalar Network.V[32].nic.mac1609_4 ReceivedUnicastPackets 20
scalar Network.V[32].nic.mac1609_4 ReceivedBroadcasts 4979
scalar Network.V[32].nic.mac1609_4 SentPackets 205
scalar Network.V[32].nic.mac1609_4 SentAcknowledgements 0
scalar Network.V[32].nic.mac1609_4 SNIRLostPackets 1913
scalar Network.V[32].nic.mac1609_4 RXTXLostPackets 0
scalar Network.V[32].nic.mac1609_4 TotalLostPackets 1913
scalar Network.V[32].nic.mac1609_4 DroppedPacketsInMac 0
scalar Network.V[32].nic.mac1609_4 TooLittleTime 0
scalar Network.V[32].nic.mac1609_4 TimesIntoBackoff 208
scalar Network.V[32].nic.mac1609_4 SlotsBackoff 310
scalar Network.V[32].nic.mac1609_4 NumInternalContention 0
scalar Network.V[32].nic.mac1609_4 totalBusyTime 3.963053100926
scalar Network.V[32].veinsmobility startTime 97
scalar Network.V[32].veinsmobility totalTime 203
scalar Network.V[32].veinsmobility stopTime 300
scalar Network.V[32].veinsmobility minSpeed 3.9195603011693
scalar Network.V[32].veinsmobility maxSpeed 13.999084359321
scalar Network.V[32].veinsmobility totalDistance 2716.559258491
scalar Network.V[32].veinsmobility totalCO2Emission 450.78243818197
scalar Network.V[33].appl "Duplicate Messages" 15
scalar Network.V[33].appl "Original Messages" 20
scalar Network.V[33].appl "Plist Message" 1
scalar Network.V[33].appl "Full CRL Recieved Time" 168.50342144916
scalar Network.V[33].nic.phy80211p busyTime 0.01909344
scalar Network.V[33].nic.mac1609_4 ReceivedUnicastPackets 18
scalar Network.V[33].nic.mac1609_4 ReceivedBroadcasts 4892
scalar Network.V[33].nic.mac1609_4 SentPackets 202
scalar Network.V[33].nic.mac1609_4 SentAcknowledgements 0
scalar Network.V[33].nic.mac1609_4 SNIRLostPackets 1872
scalar Network.V[33].nic.mac1609_4 RXTXLostPackets 1
scalar Network.V[33].nic.mac1609_4 TotalLostPackets 1873
scalar Network.V[33].nic.mac1609_4 DroppedPacketsInMac 0
scalar Network.V[33].nic.mac1609_4 TooLittleTime 0
scalar Network.V[33].nic.mac1609_4 TimesIntoBackoff 203
scalar Network.V[33].nic.mac1609_4 SlotsBackoff 312
scalar Network.V[33].nic.mac1609_4 NumInternalContention 0
scalar Network.V[33].nic.mac1609_4 totalBusyTime 3.83201
scalar Network.V[33].veinsmobility startTime 100
scalar Network.V[33].veinsmobility totalTime 200
scalar Network.V[33].veinsmobility stopTime 300
scalar Network.V[33].veinsmobility minSpeed 3.9747482432421
scalar Network.V[33].veinsmobility maxSpeed 13.999452173801
scalar Network.V[33].veinsmobility totalDistance 2684.1382606813
scalar Network.V[33].veinsmobility totalCO2Emission 447.11064588316
scalar Network.V[34].appl "Duplicate Messages" 15
scalar Network.V[34].appl "Original Messages" 20
scalar Network.V[34].appl "Plist Message" 2
scalar Network.V[34].appl "Full CRL Recieved Time" 168.50342155018
scalar Network.V[34].nic.phy80211p busyTime 0.020992893401015
scalar Network.V[34].nic.mac1609_4 ReceivedUnicastPackets 20
scalar Network.V[34].nic.mac1609_4 ReceivedBroadcasts 4737
scalar Network.V[34].nic.mac1609_4 SentPackets 199
scalar Network.V[34].nic.mac1609_4 SentAcknowledgements 0
scalar Network.V[34].nic.mac1609_4 SNIRLostPackets 2038
scalar Network.V[34].nic.mac1609_4 RXTXLostPackets 3
scalar Network.V[34].nic.mac1609_4 TotalLostPackets 2041
scalar Network.V[34].nic.mac1609_4 DroppedPacketsInMac 0
scalar Network.V[34].nic.mac1609_4 TooLittleTime 0
scalar Network.V[34].nic.mac1609_4 TimesIntoBackoff 205
scalar Network.V[34].nic.mac1609_4 SlotsBackoff 310
scalar Network.V[34].nic.mac1609_4 NumInternalContention 0
scalar Network.V[34].nic.mac1609_4 totalBusyTime 4.146111112532
scalar Network.V[34].veinsmobility startTime 103
scalar Network.V[34].veinsmobility totalTime 197
scalar Network.V[34].veinsmobility stopTime 300
scalar Network.V[34].veinsmobility minSpeed 4.2292426157767
scalar Network.V[34].veinsmobility maxSpeed 13.999056284162
scalar Network.V[34].veinsmobility totalDistance 2651.8920160264
scalar Network.V[34].veinsmobility totalCO2Emission 449.0208150979
scalar Network.V[35].appl "Duplicate Messages" 13
scalar Network.V[35].appl "Original Messages" 20
scalar Network.V[35].appl "Plist Message" 1
scalar Network.V[35].appl "Full CRL Recieved Time" 168.50342166931
scalar Network.V[35].nic.phy80211p busyTime 0.022407257731958
scalar Network.V[35].nic.mac1609_4 ReceivedUnicastPackets 17
scalar Network.V[35].nic.mac1609_4 ReceivedBroadcasts 4525
scalar Network.V[35].nic.mac1609_4 SentPackets 196
scalar Network.V[35].nic.mac1609_4 SentAcknowledgements 0
scalar Network.V[35].nic.mac1609_4 SNIRLostPackets 2210
scalar Network.V[35].nic.mac1609_4 RXTXLostPackets 2
scalar Network.V[35].nic.mac1609_4 TotalLostPackets 2212
scalar Network.V[35].nic.mac1609_4 DroppedPacketsInMac 0
scalar Network.V[35].nic.mac1609_4 TooLittleTime 0
scalar Network.V[35].nic.mac1609_4 TimesIntoBackoff 198
scalar Network.V[35].nic.mac1609_4 SlotsBackoff 301
scalar Network.V[35].nic.mac1609_4 NumInternalContention 0
scalar Network.V[35].nic.mac1609_4 totalBusyTime 4.364476
scalar Network.V[35].veinsmobility startTime 106
scalar Network.V[35].veinsmobility totalTime 194
scalar Network.V[35].veinsmobility stopTime 300
scalar Network.V[35].veinsmobility minSpeed 3.828069966125
scalar Network.V[35].veinsmobility maxSpeed 13.999447956108
scalar Network.V[35].veinsmobility totalDistance 2614.7718950494
scalar Network.V[35].veinsmobility totalCO2Emission 441.27810374061
scalar Network.V[36].appl "Duplicate Messages" 15
scalar Network.V[36].appl "Original Messages" 20
scalar Network.V[36].appl "Plist Message" 2
scalar Network.V[36].appl "Full CRL Recieved Time" 168.50342178727
scalar Network.V[36].nic.phy80211p busyTime 0.022141235602094
scalar Network.V[36].nic.mac1609_4 ReceivedUnicastPackets 20
scalar Network.V[36].nic.mac1609_4 ReceivedBroadcasts 4382
scalar Network.V[36].nic.mac1609_4 SentPackets 193
scalar Network.V[36].nic.mac1609_4 SentAcknowledgements 0
scalar Network.V[36].nic.mac1609_4 SNIRLostPackets 2228
scalar Network.V[36].nic.mac1609_4 RXTXLostPackets 1
scalar Network.V[36].nic.mac1609_4 TotalLostPackets 2229
scalar Network.V[36].nic.mac1609_4 DroppedPacketsInMac 0
scalar Network.V[36].nic.mac1609_4 TooLittleTime 0
scalar Network.V[36].nic.mac1609_4 TimesIntoBackoff 196
scalar Network.V[36].nic.mac1609_4 SlotsBackoff 270
scalar Network.V[36].nic.mac1609_4 NumInternalContention 0
scalar Network.V[36].nic.mac1609_4 totalBusyTime 4.243761
scalar Network.V[36].veinsmobility startTime 109
scalar Network.V[36].veinsmobility totalTime 191
scalar Network.V[36].veinsmobility stopTime 300
scalar Network.V[36].veinsmobility minSpeed 3.9549282409494
scalar Network.V[36].veinsmobility maxSpeed 13.999050881448
scalar Network.V[36].veinsmobility totalDistance 2576.8257982605
scalar Network.V[36].veinsmobility totalCO2Emission 435.62594371875
scalar Network.V[37].appl "Duplicate Messages" 14
scalar Network.V[37].appl "Original Messages" 20
scalar Network.V[37].appl "Plist Message" 2
scalar Network.V[37].appl "Full CRL Recieved Time" 168.5034219909
scalar Network.V[37].nic.phy80211p busyTime 0.021310127659574
scalar Network.V[37].nic.mac1609_4 ReceivedUnicastPackets 19
scalar Network.V[37].nic.mac1609_4 ReceivedBroadcasts 4339
scalar Network.V[37].nic.mac1609_4 SentPackets 190
scalar Network.V[37].nic.mac1609_4 SentAcknowledgements 0
scalar Network.V[37].nic.mac1609_4 SNIRLostPackets 2172
scalar Network.V[37].nic.mac1609_4 RXTXLostPackets 0
scalar Network.V[37].nic.mac1609_4 TotalLostPackets 2172
scalar Network.V[37].nic.mac1609_4 DroppedPacketsInMac 0
scalar Network.V[37].nic.mac1609_4 TooLittleTime 0
scalar Network.V[37].nic.mac1609_4 TimesIntoBackoff 192
scalar Network.V[37].nic.mac1609_4 SlotsBackoff 280
scalar Network.V[37].nic.mac1609_4 NumInternalContention 0
scalar Network.V[37].nic.mac1609_4 totalBusyTime 4.02195
scalar Network.V[37].veinsmobility startTime 112
scalar Network.V[37].veinsmobility totalTime 188
scalar Network.V[37].veinsmobility stopTime 300
scalar Network.V[37].veinsmobility minSpeed 4.0468560271259
scalar Network.V[37].veinsmobility maxSpeed 13.99930684353
scalar Network.V[37].veinsmobility totalDistance 2516.2814500721
scalar Network.V[37].veinsmobility totalCO2Emission 427.53926168391
scalar Network.V[38].appl "Duplicate Messages" 15
scalar Network.V[38].appl "Original Messages" 20
scalar Network.V[38].appl "Plist Message" 2
scalar Network.V[38].appl "Full CRL Recieved Time" 168.50342209306
scalar Network.V[38].nic.phy80211p busyTime 0.020570983783783
scalar Network.V[38].nic.mac1609_4 ReceivedUnicastPackets 20
scalar Network.V[38].nic.mac1609_4 ReceivedBroadcasts 4361
scalar Network.V[38].nic.mac1609_4 SentPackets 187
scalar Network.V[38].nic.mac1609_4 SentAcknowledgements 0
scalar Network.V[38].nic.mac1609_4 SNIRLostPackets 2026
scalar Network.V[38].nic.mac1609_4 RXTXLostPackets 1
scalar Network.V[38].nic.mac1609_4 TotalLostPackets 2027
scalar Network.V[38].nic.mac1609_4 DroppedPacketsInMac 0
scalar Network.V[38].nic.mac1609_4 TooLittleTime 0
scalar Network.V[38].nic.mac1609_4 TimesIntoBackoff 189
scalar Network.V[38].nic.mac1609_4 SlotsBackoff 309
scalar Network.V[38].nic.mac1609_4 NumInternalContention 0
scalar Network.V[38].nic.mac1609_4 totalBusyTime 3.822428606208
scalar Network.V[38].veinsmobility startTime 115
scalar Network.V[38].veinsmobility totalTime 185
scalar Network.V[38].veinsmobility stopTime 300
scalar Network.V[38].veinsmobility minSpeed 4.2921992871535
scalar Network.V[38].veinsmobility maxSpeed 13.999734012587
scalar Network.V[38].veinsmobility totalDistance 2482.744690984
scalar Network.V[38].veinsmobility totalCO2Emission 422.1346279664
scalar Network.V[39].appl "Duplicate Messages" 17
scalar Network.V[39].appl "Original Messages" 20
scalar Network.V[39].appl "Plist Message" 1
scalar Network.V[39].appl "Full CRL Recieved Time" 188.50663123433
scalar Network.V[39].nic.phy80211p busyTime 0.021001626373626
scalar Network.V[39].nic.mac1609_4 ReceivedUnicastPackets 16
scalar Network.V[39].nic.mac1609_4 ReceivedBroadcasts 4236
scalar Network.V[39].nic.mac1609_4 SentPackets 184
scalar Network.V[39].nic.mac1609_4 SentAcknowledgements 0
scalar Network.V[39].nic.mac1609_4 SNIRLostPackets 1949
scalar Network.V[39].nic.mac1609_4 RXTXLostPackets 3
scalar Network.V[39].nic.mac1609_4 TotalLostPackets 1952
scalar Network.V[39].nic.mac1609_4 DroppedPacketsInMac 0
scalar Network.V[39].nic.mac1609_4 TooLittleTime 0
scalar Network.V[39].nic.mac1609_4 TimesIntoBackoff 189
scalar Network.V[39].nic.mac1609_4 SlotsBackoff 279
scalar Network.V[39].nic.mac1609_4 NumInternalContention 0
scalar Network.V[39].nic.mac1609_4 totalBusyTime 3.83396
scalar Network.V[39].veinsmobility startTime 118
scalar Network.V[39].veinsmobility totalTime 182
scalar Network.V[39].veinsmobility stopTime 300
scalar Network.V[39].veinsmobility minSpeed 4.099163855175
scalar Network.V[39].veinsmobility maxSpeed 13.999926685586
scalar Network.V[39].veinsmobility totalDistance 2424.0341311243
scalar Network.V[39].veinsmobility totalCO2Emission 407.90721208981
scalar Network.V[40].appl "Duplicate Messages" 19
scalar Network.V[40].appl "Original Messages" 20
scalar Network.V[40].appl "Plist Message" 0
scalar Network.V[40].appl "Full CRL Recieved Time" 208.50679743178
scalar Network.V[40].nic.phy80211p busyTime 0.019849832402234
scalar Network.V[40].nic.mac1609_4 ReceivedUnicastPackets 0
scalar Network.V[40].nic.mac1609_4 ReceivedBroadcasts 4134
scalar Network.V[40].nic.mac1609_4 SentPackets 246
scalar Network.V[40].nic.mac1609_4 SentAcknowledgements 0
scalar Network.V[40].nic.mac1609_4 SNIRLostPackets 1946
scalar Network.V[40].nic.mac1609_4 RXTXLostPackets 0
scalar Network.V[40].nic.mac1609_4 TotalLostPackets 1946
scalar Network.V[40].nic.mac1609_4 DroppedPacketsInMac 0
scalar Network.V[40].nic.mac1609_4 TooLittleTime 0
scalar Network.V[40].nic.mac1609_4 TimesIntoBackoff 249
scalar Network.V[40].nic.mac1609_4 SlotsBackoff 401
scalar Network.V[40].nic.mac1609_4 NumInternalContention 0
scalar Network.V[40].nic.mac1609_4 totalBusyTime 3.765398
scalar Network.V[40].veinsmobility startTime 121
scalar Network.V[40].veinsmobility totalTime 179
scalar Network.V[40].veinsmobility stopTime 300
scalar Network.V[40].veinsmobility minSpeed 3.9084870939956
scalar Network.V[40].veinsmobility maxSpeed 13.999953481075
scalar Network.V[40].veinsmobility totalDistance 2388.3645388922
scalar Network.V[40].veinsmobility totalCO2Emission 406.97517797609
scalar Network.V[41].appl "Duplicate Messages" 19
scalar Network.V[41].appl "Original Messages" 20
scalar Network.V[41].appl "Plist Message" 0
scalar Network.V[41].appl "Full CRL Recieved Time" 208.50679744357
scalar Network.V[41].nic.phy80211p busyTime 0.020500863636363
scalar Network.V[41].nic.mac1609_4 ReceivedUnicastPackets 0
scalar Network.V[41].nic.mac1609_4 ReceivedBroadcasts 4031
scalar Network.V[41].nic.mac1609_4 SentPackets 240
scalar Network.V[41].nic.mac1609_4 SentAcknowledgements 0
scalar Network.V[41].nic.mac1609_4 SNIRLostPackets 1961
scalar Network.V[41].nic.mac1609_4 RXTXLostPackets 3
scalar Network.V[41].nic.mac1609_4 TotalLostPackets 1964
scalar Network.V[41].nic.mac1609_4 DroppedPacketsInMac 0
scalar Network.V[41].nic.mac1609_4 TooLittleTime 0
scalar Network.V[41].nic.mac1609_4 TimesIntoBackoff 244
scalar Network.V[41].nic.mac1609_4 SlotsBackoff 338
scalar Network.V[41].nic.mac1609_4 NumInternalContention 0
scalar Network.V[41].nic.mac1609_4 totalBusyTime 3.812472
scalar Network.V[41].veinsmobility startTime 124
scalar Network.V[41].veinsmobility totalTime 176
scalar Network.V[41].veinsmobility stopTime 300
scalar Network.V[41].veinsmobility minSpeed 4.076561782019
scalar Network.V[41].veinsmobility maxSpeed 13.99996162056
scalar Network.V[41].veinsmobility totalDistance 2355.3573133897
scalar Network.V[41].veinsmobility totalCO2Emission 405.62477230053
scalar Network.V[42].appl "Duplicate Messages" 19
scalar Network.V[42].appl "Original Messages" 20
scalar Network.V[42].appl "Plist Message" 0
scalar Network.V[42].appl "Full CRL Recieved Time" 208.50679753534
scalar Network.V[42].nic.phy80211p busyTime 0.020788994219653
scalar Network.V[42].nic.mac1609_4 ReceivedUnicastPackets 0
scalar Network.V[42].nic.mac1609_4 ReceivedBroadcasts 3884
scalar Network.V[42].nic.mac1609_4 SentPackets 234
scalar Network.V[42].nic.mac1609_4 SentAcknowledgements 0
scalar Network.V[42].nic.mac1609_4 SNIRLostPackets 1980
scalar Network.V[42].nic.mac1609_4 RXTXLostPackets 2
scalar Network.V[42].nic.mac1609_4 TotalLostPackets 1982
scalar Network.V[42].nic.mac1609_4 DroppedPacketsInMac 0
scalar Network.V[42].nic.mac1609_4 TooLittleTime 0
scalar Network.V[42].nic.mac1609_4 TimesIntoBackoff 239
scalar Network.V[42].nic.mac1609_4 SlotsBackoff 322
scalar Network.V[42].nic.mac1609_4 NumInternalContention 0
scalar Network.V[42].nic.mac1609_4 totalBusyTime 3.78577
scalar Network.V[42].veinsmobility startTime 127
scalar Network.V[42].veinsmobility totalTime 173
scalar Network.V[42].veinsmobility stopTime 300
scalar Network.V[42].veinsmobility minSpeed 3.9824005470828
scalar Network.V[42].veinsmobility maxSpeed 13.999635570813
scalar Network.V[42].veinsmobility totalDistance 2311.9330942229
scalar Network.V[42].veinsmobility totalCO2Emission 392.72069718057
scalar Network.V[43].appl "Duplicate Messages" 15
scalar Network.V[43].appl "Original Messages" 20
scalar Network.V[43].appl "Plist Message" 25
scalar Network.V[43].appl "Full CRL Recieved Time" 188.50663171051
scalar Network.V[43].nic.phy80211p busyTime 0.015336423529412
scalar Network.V[43].nic.mac1609_4 ReceivedUnicastPackets 41
scalar Network.V[43].nic.mac1609_4 ReceivedBroadcasts 3727
scalar Network.V[43].nic.mac1609_4 SentPackets 534
scalar Network.V[43].nic.mac1609_4 SentAcknowledgements 0
scalar Network.V[43].nic.mac1609_4 SNIRLostPackets 2043
scalar Network.V[43].nic.mac1609_4 RXTXLostPackets 19
scalar Network.V[43].nic.mac1609_4 TotalLostPackets 2062
scalar Network.V[43].nic.mac1609_4 DroppedPacketsInMac 0
scalar Network.V[43].nic.mac1609_4 TooLittleTime 0
scalar Network.V[43].nic.mac1609_4 TimesIntoBackoff 534
scalar Network.V[43].nic.mac1609_4 SlotsBackoff 782
scalar Network.V[43].nic.mac1609_4 NumInternalContention 0
scalar Network.V[43].nic.mac1609_4 totalBusyTime 3.758158026836
scalar Network.V[43].veinsmobility startTime 130
scalar Network.V[43].veinsmobility totalTime 170
scalar Network.V[43].veinsmobility stopTime 300
scalar Network.V[43].veinsmobility minSpeed 3.8414571175372
scalar Network.V[43].veinsmobility maxSpeed 13.999531805476
scalar Network.V[43].veinsmobility totalDistance 2271.5346399985
scalar Network.V[43].veinsmobility totalCO2Emission 387.42748197535
scalar Network.V[44].appl "Duplicate Messages" 15
scalar Network.V[44].appl "Original Messages" 20
scalar Network.V[44].appl "Plist Message" 2
scalar Network.V[44].appl "Full CRL Recieved Time" 188.5066318746
scalar Network.V[44].nic.phy80211p busyTime 0.023137053892215
scalar Network.V[44].nic.mac1609_4 ReceivedUnicastPackets 18
scalar Network.V[44].nic.mac1609_4 ReceivedBroadcasts 3566
scalar Network.V[44].nic.mac1609_4 SentPackets 169
scalar Network.V[44].nic.mac1609_4 SentAcknowledgements 0
scalar Network.V[44].nic.mac1609_4 SNIRLostPackets 2186
scalar Network.V[44].nic.mac1609_4 RXTXLostPackets 0
scalar Network.V[44].nic.mac1609_4 TotalLostPackets 2186
scalar Network.V[44].nic.mac1609_4 DroppedPacketsInMac 0
scalar Network.V[44].nic.mac1609_4 TooLittleTime 0
scalar Network.V[44].nic.mac1609_4 TimesIntoBackoff 169
scalar Network.V[44].nic.mac1609_4 SlotsBackoff 238
scalar Network.V[44].nic.mac1609_4 NumInternalContention 0
scalar Network.V[44].nic.mac1609_4 totalBusyTime 3.864305
scalar Network.V[44].veinsmobility startTime 133
scalar Network.V[44].veinsmobility totalTime 167
scalar Network.V[44].veinsmobility stopTime 300
scalar Network.V[44].veinsmobility minSpeed 4.0076643208797
scalar Network.V[44].veinsmobility maxSpeed 13.998856889885
scalar Network.V[44].veinsmobility totalDistance 2224.5167943213
scalar Network.V[44].veinsmobility totalCO2Emission 384.80651549659
scalar Network.V[45].appl "Duplicate Messages" 11
scalar Network.V[45].appl "Original Messages" 20
scalar Network.V[45].appl "Plist Message" 2
scalar Network.V[45].appl "Full CRL Recieved Time" 188.50663196166
scalar Network.V[45].nic.phy80211p busyTime 0.022729902439024
scalar Network.V[45].nic.mac1609_4 ReceivedUnicastPackets 18
scalar Network.V[45].nic.mac1609_4 ReceivedBroadcasts 3477
scalar Network.V[45].nic.mac1609_4 SentPackets 166
scalar Network.V[45].nic.mac1609_4 SentAcknowledgements 0
scalar Network.V[45].nic.mac1609_4 SNIRLostPackets 2195
scalar Network.V[45].nic.mac1609_4 RXTXLostPackets 1
scalar Network.V[45].nic.mac1609_4 TotalLostPackets 2196
scalar Network.V[45].nic.mac1609_4 DroppedPacketsInMac 0
scalar Network.V[45].nic.mac1609_4 TooLittleTime 0
scalar Network.V[45].nic.mac1609_4 TimesIntoBackoff 169
scalar Network.V[45].nic.mac1609_4 SlotsBackoff 244
scalar Network.V[45].nic.mac1609_4 NumInternalContention 0
scalar Network.V[45].nic.mac1609_4 totalBusyTime 3.724358147684
scalar Network.V[45].veinsmobility startTime 136
scalar Network.V[45].veinsmobility totalTime 164
scalar Network.V[45].veinsmobility stopTime 300
scalar Network.V[45].veinsmobility minSpeed 4.2020141742253
scalar Network.V[45].veinsmobility maxSpeed 13.999943969664
scalar Network.V[45].veinsmobility totalDistance 2190.4613783044
scalar Network.V[45].veinsmobility totalCO2Emission 381.52859920279
scalar Network.V[46].appl "Duplicate Messages" 14
scalar Network.V[46].appl "Original Messages" 20
scalar Network.V[46].appl "Plist Message" 1
scalar Network.V[46].appl "Full CRL Recieved Time" 208.5036010308
scalar Network.V[46].nic.phy80211p busyTime 0.022254757763975
scalar Network.V[46].nic.mac1609_4 ReceivedUnicastPackets 16
scalar Network.V[46].nic.mac1609_4 ReceivedBroadcasts 3318
scalar Network.V[46].nic.mac1609_4 SentPackets 163
scalar Network.V[46].nic.mac1609_4 SentAcknowledgements 0
scalar Network.V[46].nic.mac1609_4 SNIRLostPackets 2147
scalar Network.V[46].nic.mac1609_4 RXTXLostPackets 1
scalar Network.V[46].nic.mac1609_4 TotalLostPackets 2148
scalar Network.V[46].nic.mac1609_4 DroppedPacketsInMac 0
scalar Network.V[46].nic.mac1609_4 TooLittleTime 0
scalar Network.V[46].nic.mac1609_4 TimesIntoBackoff 164
scalar Network.V[46].nic.mac1609_4 SlotsBackoff 247
scalar Network.V[46].nic.mac1609_4 NumInternalContention 0
scalar Network.V[46].nic.mac1609_4 totalBusyTime 3.583859135084
scalar Network.V[46].veinsmobility startTime 139
scalar Network.V[46].veinsmobility totalTime 161
scalar Network.V[46].veinsmobility stopTime 300
scalar Network.V[46].veinsmobility minSpeed 3.9728593152307
scalar Network.V[46].veinsmobility maxSpeed 13.999837429631
scalar Network.V[46].veinsmobility totalDistance 2132.4874267232
scalar Network.V[46].veinsmobility totalCO2Emission 366.26565259674
scalar Network.V[47].appl "Duplicate Messages" 14
scalar Network.V[47].appl "Original Messages" 20
scalar Network.V[47].appl "Plist Message" 1
scalar Network.V[47].appl "Full CRL Recieved Time" 208.50360140064
scalar Network.V[47].nic.phy80211p busyTime 0.02551346835443
scalar Network.V[47].nic.mac1609_4 ReceivedUnicastPackets 16
scalar Network.V[47].nic.mac1609_4 ReceivedBroadcasts 3350
scalar Network.V[47].nic.mac1609_4 SentPackets 160
scalar Network.V[47].nic.mac1609_4 SentAcknowledgements 0
scalar Network.V[47].nic.mac1609_4 SNIRLostPackets 1817
scalar Network.V[47].nic.mac1609_4 RXTXLostPackets 1
scalar Network.V[47].nic.mac1609_4 TotalLostPackets 1818
scalar Network.V[47].nic.mac1609_4 DroppedPacketsInMac 0
scalar Network.V[47].nic.mac1609_4 TooLittleTime 0
scalar Network.V[47].nic.mac1609_4 TimesIntoBackoff 160
scalar Network.V[47].nic.mac1609_4 SlotsBackoff 262
scalar Network.V[47].nic.mac1609_4 NumInternalContention 0
scalar Network.V[47].nic.mac1609_4 totalBusyTime 4.037024
scalar Network.V[47].veinsmobility startTime 142
scalar Network.V[47].veinsmobility totalTime 158
scalar Network.V[47].veinsmobility stopTime 300
scalar Network.V[47].veinsmobility minSpeed 3.8298766437329
scalar Network.V[47].veinsmobility maxSpeed 13.999388369587
scalar Network.V[47].veinsmobility totalDistance 2003.4272469415
scalar Network.V[47].veinsmobility totalCO2Emission 348.16361431856
scalar Network.V[48].appl "Duplicate Messages" 15
scalar Network.V[48].appl "Original Messages" 20
scalar Network.V[48].appl "Plist Message" 2
scalar Network.V[48].appl "Full CRL Recieved Time" 208.50360146129
scalar Network.V[48].nic.phy80211p busyTime 0.025465238709677
scalar Network.V[48].nic.mac1609_4 ReceivedUnicastPackets 18
scalar Network.V[48].nic.mac1609_4 ReceivedBroadcasts 3338
scalar Network.V[48].nic.mac1609_4 SentPackets 157
scalar Network.V[48].nic.mac1609_4 SentAcknowledgements 0
scalar Network.V[48].nic.mac1609_4 SNIRLostPackets 1757
scalar Network.V[48].nic.mac1609_4 RXTXLostPackets 0
scalar Network.V[48].nic.mac1609_4 TotalLostPackets 1757
scalar Network.V[48].nic.mac1609_4 DroppedPacketsInMac 0
scalar Network.V[48].nic.mac1609_4 TooLittleTime 0
scalar Network.V[48].nic.mac1609_4 TimesIntoBackoff 158
scalar Network.V[48].nic.mac1609_4 SlotsBackoff 249
scalar Network.V[48].nic.mac1609_4 NumInternalContention 0
scalar Network.V[48].nic.mac1609_4 totalBusyTime 3.948597
scalar Network.V[48].veinsmobility startTime 145
scalar Network.V[48].veinsmobility totalTime 155
scalar Network.V[48].veinsmobility stopTime 300
scalar Network.V[48].veinsmobility minSpeed 4.0897017584328
scalar Network.V[48].veinsmobility maxSpeed 13.999121567754
scalar Network.V[48].veinsmobility totalDistance 1987.8324498116
scalar Network.V[48].veinsmobility totalCO2Emission 347.06767408756
scalar Network.V[49].appl "Duplicate Messages" 15
scalar Network.V[49].appl "Original Messages" 20
scalar Network.V[49].appl "Plist Message" 2
scalar Network.V[49].appl "Full CRL Recieved Time" 208.50360152187
scalar Network.V[49].nic.phy80211p busyTime 0.025503263157894
scalar Network.V[49].nic.mac1609_4 ReceivedUnicastPackets 18
scalar Network.V[49].nic.mac1609_4 ReceivedBroadcasts 3307
scalar Network.V[49].nic.mac1609_4 SentPackets 154
scalar Network.V[49].nic.mac1609_4 SentAcknowledgements 0
scalar Network.V[49].nic.mac1609_4 SNIRLostPackets 1719
scalar Network.V[49].nic.mac1609_4 RXTXLostPackets 0
scalar Network.V[49].nic.mac1609_4 TotalLostPackets 1719
scalar Network.V[49].nic.mac1609_4 DroppedPacketsInMac 0
scalar Network.V[49].nic.mac1609_4 TooLittleTime 0
scalar Network.V[49].nic.mac1609_4 TimesIntoBackoff 155
scalar Network.V[49].nic.mac1609_4 SlotsBackoff 244
scalar Network.V[49].nic.mac1609_4 NumInternalContention 0
scalar Network.V[49].nic.mac1609_4 totalBusyTime 3.876466071782
scalar Network.V[49].veinsmobility startTime 148
scalar Network.V[49].veinsmobility totalTime 152
scalar Network.V[49].veinsmobility stopTime 300
scalar Network.V[49].veinsmobility minSpeed 4.0822673356419
scalar Network.V[49].veinsmobility maxSpeed 13.999474129106
scalar Network.V[49].veinsmobility totalDistance 1961.90876704
scalar Network.V[49].veinsmobility totalCO2Emission 345.80995702273
scalar Network.V[50].appl "Duplicate Messages" 14
scalar Network.V[50].appl "Original Messages" 20
scalar Network.V[50].appl "Plist Message" 6
scalar Network.V[50].appl "Full CRL Recieved Time" 208.50360158264
scalar Network.V[50].nic.phy80211p busyTime 0.023407838926174
scalar Network.V[50].nic.mac1609_4 ReceivedUnicastPackets 21
scalar Network.V[50].nic.mac1609_4 ReceivedBroadcasts 3276
scalar Network.V[50].nic.mac1609_4 SentPackets 203
scalar Network.V[50].nic.mac1609_4 SentAcknowledgements 0
scalar Network.V[50].nic.mac1609_4 SNIRLostPackets 1609
scalar Network.V[50].nic.mac1609_4 RXTXLostPackets 3
scalar Network.V[50].nic.mac1609_4 TotalLostPackets 1612
scalar Network.V[50].nic.mac1609_4 DroppedPacketsInMac 0
scalar Network.V[50].nic.mac1609_4 TooLittleTime 0
scalar Network.V[50].nic.mac1609_4 TimesIntoBackoff 205
scalar Network.V[50].nic.mac1609_4 SlotsBackoff 276
scalar Network.V[50].nic.mac1609_4 NumInternalContention 0
scalar Network.V[50].nic.mac1609_4 totalBusyTime 3.660979105942
scalar Network.V[50].veinsmobility startTime 151
scalar Network.V[50].veinsmobility totalTime 149
scalar Network.V[50].veinsmobility stopTime 300
scalar Network.V[50].veinsmobility minSpeed 4.1418937353608
scalar Network.V[50].veinsmobility maxSpeed 13.99897103823
scalar Network.V[50].veinsmobility totalDistance 1935.393491095
scalar Network.V[50].veinsmobility totalCO2Emission 340.90019171225
scalar Network.V[51].appl "Duplicate Messages" 15
scalar Network.V[51].appl "Original Messages" 20
scalar Network.V[51].appl "Plist Message" 3
scalar Network.V[51].appl "Full CRL Recieved Time" 208.50360164363
scalar Network.V[51].nic.phy80211p busyTime 0.026046136986301
scalar Network.V[51].nic.mac1609_4 ReceivedUnicastPackets 19
scalar Network.V[51].nic.mac1609_4 ReceivedBroadcasts 3247
scalar Network.V[51].nic.mac1609_4 SentPackets 150
scalar Network.V[51].nic.mac1609_4 SentAcknowledgements 0
scalar Network.V[51].nic.mac1609_4 SNIRLostPackets 1647
scalar Network.V[51].nic.mac1609_4 RXTXLostPackets 1
scalar Network.V[51].nic.mac1609_4 TotalLostPackets 1648
scalar Network.V[51].nic.mac1609_4 DroppedPacketsInMac 0
scalar Network.V[51].nic.mac1609_4 TooLittleTime 0
scalar Network.V[51].nic.mac1609_4 TimesIntoBackoff 153
scalar Network.V[51].nic.mac1609_4 SlotsBackoff 225
scalar Network.V[51].nic.mac1609_4 NumInternalContention 0
scalar Network.V[51].nic.mac1609_4 totalBusyTime 3.749886
scalar Network.V[51].veinsmobility startTime 154
scalar Network.V[51].veinsmobility totalTime 146
scalar Network.V[51].veinsmobility stopTime 300
scalar Network.V[51].veinsmobility minSpeed 3.9558952104144
scalar Network.V[51].veinsmobility maxSpeed 13.997208599222
scalar Network.V[51].veinsmobility totalDistance 1908.5641644474
scalar Network.V[51].veinsmobility totalCO2Emission 338.6381139163
scalar Network.V[52].appl "Duplicate Messages" 9
scalar Network.V[52].appl "Original Messages" 20
scalar Network.V[52].appl "Plist Message" 0
scalar Network.V[52].appl "Full CRL Recieved Time" 208.45218588812
scalar Network.V[52].nic.phy80211p busyTime 0.027941314685314
scalar Network.V[52].nic.mac1609_4 ReceivedUnicastPackets 16
scalar Network.V[52].nic.mac1609_4 ReceivedBroadcasts 3207
scalar Network.V[52].nic.mac1609_4 SentPackets 144
scalar Network.V[52].nic.mac1609_4 SentAcknowledgements 0
scalar Network.V[52].nic.mac1609_4 SNIRLostPackets 1674
scalar Network.V[52].nic.mac1609_4 RXTXLostPackets 0
scalar Network.V[52].nic.mac1609_4 TotalLostPackets 1674
scalar Network.V[52].nic.mac1609_4 DroppedPacketsInMac 0
scalar Network.V[52].nic.mac1609_4 TooLittleTime 0
scalar Network.V[52].nic.mac1609_4 TimesIntoBackoff 144
scalar Network.V[52].nic.mac1609_4 SlotsBackoff 181
scalar Network.V[52].nic.mac1609_4 NumInternalContention 0
scalar Network.V[52].nic.mac1609_4 totalBusyTime 3.93536
scalar Network.V[52].veinsmobility startTime 157
scalar Network.V[52].veinsmobility totalTime 143
scalar Network.V[52].veinsmobility stopTime 300
scalar Network.V[52].veinsmobility minSpeed 3.894362128734
scalar Network.V[52].veinsmobility maxSpeed 13.999630116643
scalar Network.V[52].veinsmobility totalDistance 1885.7032447093
scalar Network.V[52].veinsmobility totalCO2Emission 333.81562594349
scalar Network.V[53].appl "Duplicate Messages" 15
scalar Network.V[53].appl "Original Messages" 20
scalar Network.V[53].appl "Plist Message" 1
scalar Network.V[53].appl "Full CRL Recieved Time" 228.50322354045
scalar Network.V[53].nic.phy80211p busyTime 0.026677028571428
scalar Network.V[53].nic.mac1609_4 ReceivedUnicastPackets 17
scalar Network.V[53].nic.mac1609_4 ReceivedBroadcasts 3118
scalar Network.V[53].nic.mac1609_4 SentPackets 142
scalar Network.V[53].nic.mac1609_4 SentAcknowledgements 0
scalar Network.V[53].nic.mac1609_4 SNIRLostPackets 1407
scalar Network.V[53].nic.mac1609_4 RXTXLostPackets 0
scalar Network.V[53].nic.mac1609_4 TotalLostPackets 1407
scalar Network.V[53].nic.mac1609_4 DroppedPacketsInMac 0
scalar Network.V[53].nic.mac1609_4 TooLittleTime 0
scalar Network.V[53].nic.mac1609_4 TimesIntoBackoff 142
scalar Network.V[53].nic.mac1609_4 SlotsBackoff 224
scalar Network.V[53].nic.mac1609_4 NumInternalContention 0
scalar Network.V[53].nic.mac1609_4 totalBusyTime 3.680542
scalar Network.V[53].veinsmobility startTime 160
scalar Network.V[53].veinsmobility totalTime 140
scalar Network.V[53].veinsmobility stopTime 300
scalar Network.V[53].veinsmobility minSpeed 4.0435997821582
scalar Network.V[53].veinsmobility maxSpeed 13.999317871882
scalar Network.V[53].veinsmobility totalDistance 1843.4397860373
scalar Network.V[53].veinsmobility totalCO2Emission 329.15333058099
scalar Network.V[54].appl "Duplicate Messages" 15
scalar Network.V[54].appl "Original Messages" 20
scalar Network.V[54].appl "Plist Message" 1
scalar Network.V[54].appl "Full CRL Recieved Time" 228.50322365476
scalar Network.V[54].nic.phy80211p busyTime 0.026212613138685
scalar Network.V[54].nic.mac1609_4 ReceivedUnicastPackets 17
scalar Network.V[54].nic.mac1609_4 ReceivedBroadcasts 3052
scalar Network.V[54].nic.mac1609_4 SentPackets 201
scalar Network.V[54].nic.mac1609_4 SentAcknowledgements 0
scalar Network.V[54].nic.mac1609_4 SNIRLostPackets 1374
scalar Network.V[54].nic.mac1609_4 RXTXLostPackets 1
scalar Network.V[54].nic.mac1609_4 TotalLostPackets 1375
scalar Network.V[54].nic.mac1609_4 DroppedPacketsInMac 0
scalar Network.V[54].nic.mac1609_4 TooLittleTime 0
scalar Network.V[54].nic.mac1609_4 TimesIntoBackoff 205
scalar Network.V[54].nic.mac1609_4 SlotsBackoff 308
scalar Network.V[54].nic.mac1609_4 NumInternalContention 0
scalar Network.V[54].nic.mac1609_4 totalBusyTime 3.730105
scalar Network.V[54].veinsmobility startTime 163
scalar Network.V[54].veinsmobility totalTime 137
scalar Network.V[54].veinsmobility stopTime 300
scalar Network.V[54].veinsmobility minSpeed 3.8368940664504
scalar Network.V[54].veinsmobility maxSpeed 13.996823755521
[...]
scalar Network.V[86].nic.mac1609_4 SlotsBackoff 106
scalar Network.V[86].nic.mac1609_4 NumInternalContention 0
scalar Network.V[86].nic.mac1609_4 totalBusyTime 2.128345107307
scalar Network.V[86].veinsmobility startTime 259
scalar Network.V[86].veinsmobility totalTime 41
scalar Network.V[86].veinsmobility stopTime 300
scalar Network.V[86].veinsmobility minSpeed 4.1158382290048
scalar Network.V[86].veinsmobility maxSpeed 13.990123631386
scalar Network.V[86].veinsmobility totalDistance 511.65100885886
scalar Network.V[86].veinsmobility totalCO2Emission 117.94094394425
scalar Network.V[87].appl "Duplicate Messages" 0
scalar Network.V[87].appl "Original Messages" 15
scalar Network.V[87].appl "Plist Message" 3
scalar Network.V[87].appl "Full CRL Recieved Time" 0
scalar Network.V[87].nic.phy80211p busyTime 0.053360421052631
scalar Network.V[87].nic.mac1609_4 ReceivedUnicastPackets 18
scalar Network.V[87].nic.mac1609_4 ReceivedBroadcasts 620
scalar Network.V[87].nic.mac1609_4 SentPackets 42
scalar Network.V[87].nic.mac1609_4 SentAcknowledgements 0
scalar Network.V[87].nic.mac1609_4 SNIRLostPackets 91
scalar Network.V[87].nic.mac1609_4 RXTXLostPackets 3
scalar Network.V[87].nic.mac1609_4 TotalLostPackets 94
scalar Network.V[87].nic.mac1609_4 DroppedPacketsInMac 0
scalar Network.V[87].nic.mac1609_4 TooLittleTime 0
scalar Network.V[87].nic.mac1609_4 TimesIntoBackoff 44
scalar Network.V[87].nic.mac1609_4 SlotsBackoff 70
scalar Network.V[87].nic.mac1609_4 NumInternalContention 0
scalar Network.V[87].nic.mac1609_4 totalBusyTime 2.021554
scalar Network.V[87].veinsmobility startTime 262
scalar Network.V[87].veinsmobility totalTime 38
scalar Network.V[87].veinsmobility stopTime 300
scalar Network.V[87].veinsmobility minSpeed 3.8174475834241
scalar Network.V[87].veinsmobility maxSpeed 13.336986548975
scalar Network.V[87].veinsmobility totalDistance 417.81534833755
scalar Network.V[87].veinsmobility totalCO2Emission 95.961037703337
scalar Network.V[88].appl "Duplicate Messages" 0
scalar Network.V[88].appl "Original Messages" 15
scalar Network.V[88].appl "Plist Message" 2
scalar Network.V[88].appl "Full CRL Recieved Time" 0
scalar Network.V[88].nic.phy80211p busyTime 0.054130742857143
scalar Network.V[88].nic.mac1609_4 ReceivedUnicastPackets 17
scalar Network.V[88].nic.mac1609_4 ReceivedBroadcasts 577
scalar Network.V[88].nic.mac1609_4 SentPackets 37
scalar Network.V[88].nic.mac1609_4 SentAcknowledgements 0
scalar Network.V[88].nic.mac1609_4 SNIRLostPackets 100
scalar Network.V[88].nic.mac1609_4 RXTXLostPackets 0
scalar Network.V[88].nic.mac1609_4 TotalLostPackets 100
scalar Network.V[88].nic.mac1609_4 DroppedPacketsInMac 0
scalar Network.V[88].nic.mac1609_4 TooLittleTime 0
scalar Network.V[88].nic.mac1609_4 TimesIntoBackoff 38
scalar Network.V[88].nic.mac1609_4 SlotsBackoff 57
scalar Network.V[88].nic.mac1609_4 NumInternalContention 0
scalar Network.V[88].nic.mac1609_4 totalBusyTime 1.877797
scalar Network.V[88].veinsmobility startTime 265
scalar Network.V[88].veinsmobility totalTime 35
scalar Network.V[88].veinsmobility stopTime 300
scalar Network.V[88].veinsmobility minSpeed 3.8670085059182
scalar Network.V[88].veinsmobility maxSpeed 13.965305031855
scalar Network.V[88].veinsmobility totalDistance 398.27760716162
scalar Network.V[88].veinsmobility totalCO2Emission 95.748360867797
scalar Network.V[89].appl "Duplicate Messages" 0
scalar Network.V[89].appl "Original Messages" 15
scalar Network.V[89].appl "Plist Message" 12
scalar Network.V[89].appl "Full CRL Recieved Time" 0
scalar Network.V[89].nic.phy80211p busyTime 0.041467
scalar Network.V[89].nic.mac1609_4 ReceivedUnicastPackets 27
scalar Network.V[89].nic.mac1609_4 ReceivedBroadcasts 530
scalar Network.V[89].nic.mac1609_4 SentPackets 152
scalar Network.V[89].nic.mac1609_4 SentAcknowledgements 0
scalar Network.V[89].nic.mac1609_4 SNIRLostPackets 89
scalar Network.V[89].nic.mac1609_4 RXTXLostPackets 4
scalar Network.V[89].nic.mac1609_4 TotalLostPackets 93
scalar Network.V[89].nic.mac1609_4 DroppedPacketsInMac 0
scalar Network.V[89].nic.mac1609_4 TooLittleTime 0
scalar Network.V[89].nic.mac1609_4 TimesIntoBackoff 153
scalar Network.V[89].nic.mac1609_4 SlotsBackoff 221
scalar Network.V[89].nic.mac1609_4 NumInternalContention 0
scalar Network.V[89].nic.mac1609_4 totalBusyTime 1.689728
scalar Network.V[89].veinsmobility startTime 268
scalar Network.V[89].veinsmobility totalTime 32
scalar Network.V[89].veinsmobility stopTime 300
scalar Network.V[89].veinsmobility minSpeed 4.0015697824781
scalar Network.V[89].veinsmobility maxSpeed 13.992051549789
scalar Network.V[89].veinsmobility totalDistance 367.59980475139
scalar Network.V[89].veinsmobility totalCO2Emission 92.019692858021
scalar Network.V[90].appl "Duplicate Messages" 0
scalar Network.V[90].appl "Original Messages" 15
scalar Network.V[90].appl "Plist Message" 2
scalar Network.V[90].appl "Full CRL Recieved Time" 0
scalar Network.V[90].nic.phy80211p busyTime 0.05075724137931
scalar Network.V[90].nic.mac1609_4 ReceivedUnicastPackets 17
scalar Network.V[90].nic.mac1609_4 ReceivedBroadcasts 487
scalar Network.V[90].nic.mac1609_4 SentPackets 31
scalar Network.V[90].nic.mac1609_4 SentAcknowledgements 0
scalar Network.V[90].nic.mac1609_4 SNIRLostPackets 68
scalar Network.V[90].nic.mac1609_4 RXTXLostPackets 0
scalar Network.V[90].nic.mac1609_4 TotalLostPackets 68
scalar Network.V[90].nic.mac1609_4 DroppedPacketsInMac 0
scalar Network.V[90].nic.mac1609_4 TooLittleTime 0
scalar Network.V[90].nic.mac1609_4 TimesIntoBackoff 36
scalar Network.V[90].nic.mac1609_4 SlotsBackoff 61
scalar Network.V[90].nic.mac1609_4 NumInternalContention 0
scalar Network.V[90].nic.mac1609_4 totalBusyTime 1.464079
scalar Network.V[90].veinsmobility startTime 271
scalar Network.V[90].veinsmobility totalTime 29
scalar Network.V[90].veinsmobility stopTime 300
scalar Network.V[90].veinsmobility minSpeed 4.3101937902846
scalar Network.V[90].veinsmobility maxSpeed 13.994978454306
scalar Network.V[90].veinsmobility totalDistance 337.04796914384
scalar Network.V[90].veinsmobility totalCO2Emission 92.325485289257
scalar Network.V[91].appl "Duplicate Messages" 0
scalar Network.V[91].appl "Original Messages" 0
scalar Network.V[91].appl "Plist Message" 0
scalar Network.V[91].appl "Full CRL Recieved Time" 0
scalar Network.V[91].nic.phy80211p busyTime 0.045444615384615
scalar Network.V[91].nic.mac1609_4 ReceivedUnicastPackets 0
scalar Network.V[91].nic.mac1609_4 ReceivedBroadcasts 397
scalar Network.V[91].nic.mac1609_4 SentPackets 52
scalar Network.V[91].nic.mac1609_4 SentAcknowledgements 0
scalar Network.V[91].nic.mac1609_4 SNIRLostPackets 67
scalar Network.V[91].nic.mac1609_4 RXTXLostPackets 1
scalar Network.V[91].nic.mac1609_4 TotalLostPackets 68
scalar Network.V[91].nic.mac1609_4 DroppedPacketsInMac 0
scalar Network.V[91].nic.mac1609_4 TooLittleTime 0
scalar Network.V[91].nic.mac1609_4 TimesIntoBackoff 61
scalar Network.V[91].nic.mac1609_4 SlotsBackoff 91
scalar Network.V[91].nic.mac1609_4 NumInternalContention 0
scalar Network.V[91].nic.mac1609_4 totalBusyTime 1.254243027561
scalar Network.V[91].veinsmobility startTime 274
scalar Network.V[91].veinsmobility totalTime 26
scalar Network.V[91].veinsmobility stopTime 300
scalar Network.V[91].veinsmobility minSpeed 4.0334593472669
scalar Network.V[91].veinsmobility maxSpeed 13.959311332325
scalar Network.V[91].veinsmobility totalDistance 284.2648121853
scalar Network.V[91].veinsmobility totalCO2Emission 80.913441344965
scalar Network.V[92].appl "Duplicate Messages" 0
scalar Network.V[92].appl "Original Messages" 0
scalar Network.V[92].appl "Plist Message" 0
scalar Network.V[92].appl "Full CRL Recieved Time" 0
scalar Network.V[92].nic.phy80211p busyTime 0.055736
scalar Network.V[92].nic.mac1609_4 ReceivedUnicastPackets 0
scalar Network.V[92].nic.mac1609_4 ReceivedBroadcasts 340
scalar Network.V[92].nic.mac1609_4 SentPackets 46
scalar Network.V[92].nic.mac1609_4 SentAcknowledgements 0
scalar Network.V[92].nic.mac1609_4 SNIRLostPackets 105
scalar Network.V[92].nic.mac1609_4 RXTXLostPackets 1
scalar Network.V[92].nic.mac1609_4 TotalLostPackets 106
scalar Network.V[92].nic.mac1609_4 DroppedPacketsInMac 0
scalar Network.V[92].nic.mac1609_4 TooLittleTime 0
scalar Network.V[92].nic.mac1609_4 TimesIntoBackoff 47
scalar Network.V[92].nic.mac1609_4 SlotsBackoff 77
scalar Network.V[92].nic.mac1609_4 NumInternalContention 0
scalar Network.V[92].nic.mac1609_4 totalBusyTime 1.347238
scalar Network.V[92].veinsmobility startTime 277
scalar Network.V[92].veinsmobility totalTime 23
scalar Network.V[92].veinsmobility stopTime 300
scalar Network.V[92].veinsmobility minSpeed 3.8318498705856
scalar Network.V[92].veinsmobility maxSpeed 13.973229011565
scalar Network.V[92].veinsmobility totalDistance 253.24311151875
scalar Network.V[92].veinsmobility totalCO2Emission 77.655961585233
scalar Network.V[93].appl "Duplicate Messages" 1
scalar Network.V[93].appl "Original Messages" 13
scalar Network.V[93].appl "Plist Message" 2
scalar Network.V[93].appl "Full CRL Recieved Time" 0
scalar Network.V[93].nic.phy80211p busyTime 0.0589036
scalar Network.V[93].nic.mac1609_4 ReceivedUnicastPackets 15
scalar Network.V[93].nic.mac1609_4 ReceivedBroadcasts 291
scalar Network.V[93].nic.mac1609_4 SentPackets 42
scalar Network.V[93].nic.mac1609_4 SentAcknowledgements 0
scalar Network.V[93].nic.mac1609_4 SNIRLostPackets 92
scalar Network.V[93].nic.mac1609_4 RXTXLostPackets 0
scalar Network.V[93].nic.mac1609_4 TotalLostPackets 92
scalar Network.V[93].nic.mac1609_4 DroppedPacketsInMac 0
scalar Network.V[93].nic.mac1609_4 TooLittleTime 0
scalar Network.V[93].nic.mac1609_4 TimesIntoBackoff 42
scalar Network.V[93].nic.mac1609_4 SlotsBackoff 71
scalar Network.V[93].nic.mac1609_4 NumInternalContention 0
scalar Network.V[93].nic.mac1609_4 totalBusyTime 1.233610009848
scalar Network.V[93].veinsmobility startTime 280
scalar Network.V[93].veinsmobility totalTime 20
scalar Network.V[93].veinsmobility stopTime 300
scalar Network.V[93].veinsmobility minSpeed 4.0960880163999
scalar Network.V[93].veinsmobility maxSpeed 13.994325766887
scalar Network.V[93].veinsmobility totalDistance 226.73117144082
scalar Network.V[93].veinsmobility totalCO2Emission 58.876763689696
scalar Network.V[94].appl "Duplicate Messages" 0
scalar Network.V[94].appl "Original Messages" 15
scalar Network.V[94].appl "Plist Message" 2
scalar Network.V[94].appl "Full CRL Recieved Time" 0
scalar Network.V[94].nic.phy80211p busyTime 0.061170352941176
scalar Network.V[94].nic.mac1609_4 ReceivedUnicastPackets 17
scalar Network.V[94].nic.mac1609_4 ReceivedBroadcasts 245
scalar Network.V[94].nic.mac1609_4 SentPackets 19
scalar Network.V[94].nic.mac1609_4 SentAcknowledgements 0
scalar Network.V[94].nic.mac1609_4 SNIRLostPackets 73
scalar Network.V[94].nic.mac1609_4 RXTXLostPackets 0
scalar Network.V[94].nic.mac1609_4 TotalLostPackets 73
scalar Network.V[94].nic.mac1609_4 DroppedPacketsInMac 0
scalar Network.V[94].nic.mac1609_4 TooLittleTime 0
scalar Network.V[94].nic.mac1609_4 TimesIntoBackoff 19
scalar Network.V[94].nic.mac1609_4 SlotsBackoff 20
scalar Network.V[94].nic.mac1609_4 NumInternalContention 0
scalar Network.V[94].nic.mac1609_4 totalBusyTime 1.033171
scalar Network.V[94].veinsmobility startTime 283
scalar Network.V[94].veinsmobility totalTime 17
scalar Network.V[94].veinsmobility stopTime 300
scalar Network.V[94].veinsmobility minSpeed 4.1678804038517
scalar Network.V[94].veinsmobility maxSpeed 13.964783743245
scalar Network.V[94].veinsmobility totalDistance 199.47390585522
scalar Network.V[94].veinsmobility totalCO2Emission 53.246680092109
scalar Network.V[95].appl "Duplicate Messages" 0
scalar Network.V[95].appl "Original Messages" 15
scalar Network.V[95].appl "Plist Message" 6
scalar Network.V[95].appl "Full CRL Recieved Time" 0
scalar Network.V[95].nic.phy80211p busyTime 0.047085714285714
scalar Network.V[95].nic.mac1609_4 ReceivedUnicastPackets 21
scalar Network.V[95].nic.mac1609_4 ReceivedBroadcasts 211
scalar Network.V[95].nic.mac1609_4 SentPackets 80
scalar Network.V[95].nic.mac1609_4 SentAcknowledgements 0
scalar Network.V[95].nic.mac1609_4 SNIRLostPackets 50
scalar Network.V[95].nic.mac1609_4 RXTXLostPackets 3
scalar Network.V[95].nic.mac1609_4 TotalLostPackets 53
scalar Network.V[95].nic.mac1609_4 DroppedPacketsInMac 0
scalar Network.V[95].nic.mac1609_4 TooLittleTime 0
scalar Network.V[95].nic.mac1609_4 TimesIntoBackoff 88
scalar Network.V[95].nic.mac1609_4 SlotsBackoff 134
scalar Network.V[95].nic.mac1609_4 NumInternalContention 0
scalar Network.V[95].nic.mac1609_4 totalBusyTime 0.858144
scalar Network.V[95].veinsmobility startTime 286
scalar Network.V[95].veinsmobility totalTime 14
scalar Network.V[95].veinsmobility stopTime 300
scalar Network.V[95].veinsmobility minSpeed 4.019737268876
scalar Network.V[95].veinsmobility maxSpeed 13.995758571147
scalar Network.V[95].veinsmobility totalDistance 158.65375432649
scalar Network.V[95].veinsmobility totalCO2Emission 48.625399976663
scalar Network.V[96].appl "Duplicate Messages" 0
scalar Network.V[96].appl "Original Messages" 15
scalar Network.V[96].appl "Plist Message" 2
scalar Network.V[96].appl "Full CRL Recieved Time" 0
scalar Network.V[96].nic.phy80211p busyTime 0.058693818181818
scalar Network.V[96].nic.mac1609_4 ReceivedUnicastPackets 17
scalar Network.V[96].nic.mac1609_4 ReceivedBroadcasts 167
scalar Network.V[96].nic.mac1609_4 SentPackets 13
scalar Network.V[96].nic.mac1609_4 SentAcknowledgements 0
scalar Network.V[96].nic.mac1609_4 SNIRLostPackets 47
scalar Network.V[96].nic.mac1609_4 RXTXLostPackets 0
scalar Network.V[96].nic.mac1609_4 TotalLostPackets 47
scalar Network.V[96].nic.mac1609_4 DroppedPacketsInMac 0
scalar Network.V[96].nic.mac1609_4 TooLittleTime 0
scalar Network.V[96].nic.mac1609_4 TimesIntoBackoff 13
scalar Network.V[96].nic.mac1609_4 SlotsBackoff 20
scalar Network.V[96].nic.mac1609_4 NumInternalContention 0
scalar Network.V[96].nic.mac1609_4 totalBusyTime 0.637389
scalar Network.V[96].veinsmobility startTime 289
scalar Network.V[96].veinsmobility totalTime 11
scalar Network.V[96].veinsmobility stopTime 300
scalar Network.V[96].veinsmobility minSpeed 3.8388518026201
scalar Network.V[96].veinsmobility maxSpeed 13.958123562497
scalar Network.V[96].veinsmobility totalDistance 115.61907861853
scalar Network.V[96].veinsmobility totalCO2Emission 42.161767083495
scalar Network.V[97].appl "Duplicate Messages" 0
scalar Network.V[97].appl "Original Messages" 15
scalar Network.V[97].appl "Plist Message" 2
scalar Network.V[97].appl "Full CRL Recieved Time" 0
scalar Network.V[97].nic.phy80211p busyTime 0.061152
scalar Network.V[97].nic.mac1609_4 ReceivedUnicastPackets 17
scalar Network.V[97].nic.mac1609_4 ReceivedBroadcasts 127
scalar Network.V[97].nic.mac1609_4 SentPackets 10
scalar Network.V[97].nic.mac1609_4 SentAcknowledgements 0
scalar Network.V[97].nic.mac1609_4 SNIRLostPackets 40
scalar Network.V[97].nic.mac1609_4 RXTXLostPackets 0
scalar Network.V[97].nic.mac1609_4 TotalLostPackets 40
scalar Network.V[97].nic.mac1609_4 DroppedPacketsInMac 0
scalar Network.V[97].nic.mac1609_4 TooLittleTime 0
scalar Network.V[97].nic.mac1609_4 TimesIntoBackoff 10
scalar Network.V[97].nic.mac1609_4 SlotsBackoff 16
scalar Network.V[97].nic.mac1609_4 NumInternalContention 0
scalar Network.V[97].nic.mac1609_4 totalBusyTime 0.483722516509
scalar Network.V[97].veinsmobility startTime 292
scalar Network.V[97].veinsmobility totalTime 8
scalar Network.V[97].veinsmobility stopTime 300
scalar Network.V[97].veinsmobility minSpeed 4.1988672093417
scalar Network.V[97].veinsmobility maxSpeed 13.973666138183
scalar Network.V[97].veinsmobility totalDistance 75.916529038577
scalar Network.V[97].veinsmobility totalCO2Emission 36.061474020251
scalar Network.V[98].appl "Duplicate Messages" 0
scalar Network.V[98].appl "Original Messages" 15
scalar Network.V[98].appl "Plist Message" 4
scalar Network.V[98].appl "Full CRL Recieved Time" 0
scalar Network.V[98].nic.phy80211p busyTime 0.058832
scalar Network.V[98].nic.mac1609_4 ReceivedUnicastPackets 19
scalar Network.V[98].nic.mac1609_4 ReceivedBroadcasts 73
scalar Network.V[98].nic.mac1609_4 SentPackets 11
scalar Network.V[98].nic.mac1609_4 SentAcknowledgements 0
scalar Network.V[98].nic.mac1609_4 SNIRLostPackets 35
scalar Network.V[98].nic.mac1609_4 RXTXLostPackets 3
scalar Network.V[98].nic.mac1609_4 TotalLostPackets 38
scalar Network.V[98].nic.mac1609_4 DroppedPacketsInMac 0
scalar Network.V[98].nic.mac1609_4 TooLittleTime 0
scalar Network.V[98].nic.mac1609_4 TimesIntoBackoff 11
scalar Network.V[98].nic.mac1609_4 SlotsBackoff 14
scalar Network.V[98].nic.mac1609_4 NumInternalContention 0
scalar Network.V[98].nic.mac1609_4 totalBusyTime 0.309731
scalar Network.V[98].veinsmobility startTime 295
scalar Network.V[98].veinsmobility totalTime 5
scalar Network.V[98].veinsmobility stopTime 300
scalar Network.V[98].veinsmobility minSpeed 4.1315341364683
scalar Network.V[98].veinsmobility maxSpeed 11.841953389153
scalar Network.V[98].veinsmobility totalDistance 35.446197778958
scalar Network.V[98].veinsmobility totalCO2Emission 23.120884462694
scalar Network.V[99].appl "Duplicate Messages" 0
scalar Network.V[99].appl "Original Messages" 15
scalar Network.V[99].appl "Plist Message" 2
scalar Network.V[99].appl "Full CRL Recieved Time" 0
scalar Network.V[99].nic.phy80211p busyTime 0.083568
scalar Network.V[99].nic.mac1609_4 ReceivedUnicastPackets 17
scalar Network.V[99].nic.mac1609_4 ReceivedBroadcasts 31
scalar Network.V[99].nic.mac1609_4 SentPackets 4
scalar Network.V[99].nic.mac1609_4 SentAcknowledgements 0
scalar Network.V[99].nic.mac1609_4 SNIRLostPackets 15
scalar Network.V[99].nic.mac1609_4 RXTXLostPackets 0
scalar Network.V[99].nic.mac1609_4 TotalLostPackets 15
scalar Network.V[99].nic.mac1609_4 DroppedPacketsInMac 0
scalar Network.V[99].nic.mac1609_4 TooLittleTime 0
scalar Network.V[99].nic.mac1609_4 TimesIntoBackoff 4
scalar Network.V[99].nic.mac1609_4 SlotsBackoff 8
scalar Network.V[99].nic.mac1609_4 NumInternalContention 0
scalar Network.V[99].nic.mac1609_4 totalBusyTime 0.170252
scalar Network.V[99].veinsmobility startTime 298
scalar Network.V[99].veinsmobility totalTime 2
scalar Network.V[99].veinsmobility stopTime 300
scalar Network.V[99].veinsmobility minSpeed 3.8684168658379
scalar Network.V[99].veinsmobility maxSpeed 6.0924802270016
scalar Network.V[99].veinsmobility totalDistance 8.0808582088914
scalar Network.V[99].veinsmobility totalCO2Emission 4.6903570008639
scalar Network.manager roiArea 0
scalar Network.CA[0].nic.phy80211p busyTime 0
scalar Network.CA[0].nic.mac1609_4 ReceivedUnicastPackets 0
scalar Network.CA[0].nic.mac1609_4 ReceivedBroadcasts 0
scalar Network.CA[0].nic.mac1609_4 SentPackets 0
scalar Network.CA[0].nic.mac1609_4 SentAcknowledgements 0
scalar Network.CA[0].nic.mac1609_4 SNIRLostPackets 0
scalar Network.CA[0].nic.mac1609_4 RXTXLostPackets 0
scalar Network.CA[0].nic.mac1609_4 TotalLostPackets 0
scalar Network.CA[0].nic.mac1609_4 DroppedPacketsInMac 0
scalar Network.CA[0].nic.mac1609_4 TooLittleTime 0
scalar Network.CA[0].nic.mac1609_4 TimesIntoBackoff 0
scalar Network.CA[0].nic.mac1609_4 SlotsBackoff 0
scalar Network.CA[0].nic.mac1609_4 NumInternalContention 0
scalar Network.CA[0].nic.mac1609_4 totalBusyTime 0
scalar Network.RSU[0].nic.phy80211p busyTime 0.024747306666666
scalar Network.RSU[0].nic.mac1609_4 ReceivedUnicastPackets 0
scalar Network.RSU[0].nic.mac1609_4 ReceivedBroadcasts 5573
scalar Network.RSU[0].nic.mac1609_4 SentPackets 300
scalar Network.RSU[0].nic.mac1609_4 SentAcknowledgements 0
scalar Network.RSU[0].nic.mac1609_4 SNIRLostPackets 3977
scalar Network.RSU[0].nic.mac1609_4 RXTXLostPackets 4
scalar Network.RSU[0].nic.mac1609_4 TotalLostPackets 3981
scalar Network.RSU[0].nic.mac1609_4 DroppedPacketsInMac 0
scalar Network.RSU[0].nic.mac1609_4 TooLittleTime 0
scalar Network.RSU[0].nic.mac1609_4 TimesIntoBackoff 300
scalar Network.RSU[0].nic.mac1609_4 SlotsBackoff 447
scalar Network.RSU[0].nic.mac1609_4 NumInternalContention 0
scalar Network.RSU[0].nic.mac1609_4 totalBusyTime 8.270236

